%nprocshared=4 
%mem=4GB 
# b3lyp/6-31g(d) 

tmpdir/M1_conf_0_2.gjf 

0 1
N                  -0.68290700   -0.40283100   -1.55893400 
N                  -0.70572100   -1.64323000   -1.36061400 
N                  -0.04695300   -2.52104300   -0.96491900 
H                  -1.57674937    0.11348977   -1.59125682 


