%nprocshared=4 
%mem=4GB 
# b3lyp/6-31g(d) 

tmpdir/M1_conf_0_9.gjf 

0 1
C                   1.60982100    1.29196200   -0.47913000 
H                   2.00488500    1.53347300   -1.48141000 
H                   2.39239389    1.52525526    0.28752318 
H                   1.38479163    0.25319862   -0.43819569 
H                   0.64105304    1.93476709   -0.30255788 


