%nprocshared=4 
%mem=4GB 
# b3lyp/6-31g(d) 

tmpdir/M1_conf_0_6.gjf 

0 1
C                   4.19210100   -0.49675700    1.21967200 
H                   3.56214700   -0.48651500    2.12080300 
H                   5.22587500   -0.52232900    1.58713800 
H                   4.07307170    0.47563472    0.66420170 
H                   4.03224670   -1.45250369    0.66095652 


