%nprocshared=4 
%mem=4GB 
# b3lyp/6-31g(d) 

tmpdir/M1_conf_0_0.gjf 

0 1
C                  -2.85566400    0.13658400   -0.39806900 
C                  -2.46230400    0.60515300    0.86390500 
C                  -4.08173600   -0.52446900   -0.52546500 
C                  -3.28548300    0.41331800    1.97238700 
H                  -1.50802500    1.11487700    0.96491100 
C                  -4.90811100   -0.71458200    0.58459700 
H                  -4.39373700   -0.89314400   -1.50055600 
C                  -4.51062300   -0.24607300    1.83658700 
H                  -2.97220600    0.78096800    2.94635300 
H                  -5.85845600   -1.22944700    0.46957200 
H                  -5.15048700   -0.39318400    2.70282100 
H                  -2.20692895    0.27990402   -1.27181967 


