%nprocshared=4 
%mem=4GB 
# b3lyp/6-31g(d) 

tmpdir/M1_conf_0_11.gjf 

0 1
C                   0.53664200    3.42501600   -0.67678600 
H                  -0.46248200    3.85942600   -0.58576400 
H                   1.22760100    4.00842600   -0.05196100 
H                   0.86522400    3.50074200   -1.72534300 
H                   0.44905058    2.31639178   -0.33792051 


