%nprocshared=4 
%mem=4GB 
# b3lyp/6-31g(d) 

tmpdir/M1_conf_0_1.gjf 

0 1
C                  -1.95948000    0.33457100   -1.60509700 
H                  -1.65016500    1.37790700   -1.68916000 
H                  -2.49825800    0.07289000   -2.52529500 
H                  -0.95607958   -0.24503508   -1.56881237 
H                  -2.60821505    0.19125098   -0.73134633 


