%nprocshared=4 
%mem=4GB 
# b3lyp/6-31g(d) 

tmpdir/M1_conf_0_4.gjf 

0 1
C                   2.51909900   -2.33393300    0.37608900 
H                   2.48265700   -3.25991000   -0.20925300 
H                   2.16981400   -2.59938700    1.38437300 
H                   3.57030743   -1.95977370    0.42803144 
H                   1.86684876   -1.59513784   -0.02986699 


