%nprocshared=4 
%mem=4GB 
# b3lyp/6-31g(d) 

tmpdir/M1_ref_1.gjf 

0 1
C                   1.15614900   -0.81771200   31.04647900 
H                   1.14245600   -1.85735800   31.38092600 
H                   1.45905300   -0.19669200   31.89953500 
H                   1.99542718   -0.79708707   30.22690376 
H                   0.17229165   -0.50936407   30.67720376 


