%nprocshared=2 
%mem=2GB 
# b3lyp/6-31g(d) 

tmpdir/M2_conf_0_68.gjf 

-1 1
N                   0.00000000    0.00000000    0.00000000 
C                   1.49270000    0.00000000    0.00000000 
C                   2.13016000    0.00000000    1.37204000 
H                  -0.40584000    0.75970000    0.39245000 
H                   1.75434000   -0.90999000   -0.54440000 
H                   1.86096000    0.85475000   -0.58220000 
H                   2.10208000   -0.83285000    1.95117000 
O                   2.66907000    1.01745000    1.81438000 


