%nprocshared=2 
%mem=2GB 
# b3lyp/6-31g(d) 

tmpdir/M2_conf_0_65.gjf 

0 1
C                   0.00000000    0.00000000    0.00000000 
C                   1.51630000    0.00000000    0.00000000 
H                  -0.47179000    0.00000000   -1.07426000 
H                  -0.39319000    0.91000000    0.45848000 
H                  -0.38500000   -0.85472000    0.57132000 
H                   2.02967000    0.83285000   -0.26949000 
O                   2.14452000   -1.01745000    0.30235000 


