%nprocshared=2 
%mem=2GB 
# b3lyp/6-31g(d) 

tmpdir/M2_conf_0_85.gjf 

0 1
C                   0.00000000    0.00000000    0.00000000 
C                   1.39910000    0.00000000    0.00000000 
H                   1.93547000    0.00000000    0.94649000 
H                  -0.55783000   -0.02385000    0.94219000 
H                  -0.49152000    0.00124000   -0.88782000 
H                   1.91410000    0.00425000   -0.87011000 


