%nprocshared=2 
%mem=2GB 
# b3lyp/6-31g(d) 

tmpdir/M2_conf_0_75.gjf 

0 1
C                   0.00000000    0.00000000    0.00000000 
C                   1.51290000    0.00000000    0.00000000 
C                   2.22258000    0.00000000    1.20575000 
H                  -0.47179000   -1.02976000   -0.30601000 
H                  -0.39319000    0.69870000   -0.74170000 
H                  -0.38500000    0.30418000    0.98205000 
H                   2.02627000   -0.02123000   -0.87511000 
H                   3.23352000   -0.01777000    1.20832000 
H                   1.68020000    0.02394000    2.14851000 


