%nprocshared=2 
%mem=2GB 
# b3lyp/6-31g(d) 

tmpdir/M2_conf_0_95.gjf 

0 1
C                   0.00000000    0.00000000    0.00000000 
C                   1.39670000    0.00000000    0.00000000 
H                   1.93737000    0.00000000    0.94254000 
O                  -0.62822000    0.00278000   -1.06142000 
H                  -0.54033000    0.00214000    0.94423000 
O                   2.01126000    0.00019000   -1.06489000 


