%nprocshared=2 
%mem=2GB 
# b3lyp/6-31g(d) 

tmpdir/M2_conf_0_26.gjf 

0 1
C                   0.00000000    0.00000000    0.00000000 
C                   1.55490000    0.00000000    0.00000000 
H                   1.87965000    0.00000000    1.04909000 
H                  -0.37872000   -0.95203000    0.39279000 
H                  -0.37440000    0.78760000    0.66864000 
H                  -0.30751000    0.19305000   -0.99226000 
H                   2.03908000    0.85610000   -0.54120000 
H                   1.90430000   -0.94449000   -0.43682000 


