%nprocshared=2 
%mem=2GB 
# b3lyp/6-31g(d) 

tmpdir/M2_conf_0_31.gjf 

0 1
C                   0.00000000    0.00000000    0.00000000 
C                   1.55490000    0.00000000    0.00000000 
H                   1.92696000    0.00000000    1.03230000 
H                  -0.48418000    0.17378000   -0.99780000 
H                  -0.34940000    0.76414000    0.70637000 
H                  -0.33480000   -0.96686000    0.39891000 
H                   1.92930000   -0.91857000   -0.47289000 
H                   1.86241000    0.84362000   -0.55690000 


