%nprocshared=2 
%mem=2GB 
# b3lyp/6-31g(d) 

tmpdir/M2_conf_0_24.gjf 

0 1
C                   0.00000000    0.00000000    0.00000000 
C                   1.55090000    0.00000000    0.00000000 
H                   1.90082000    0.00000000    1.04096000 
H                  -0.53808000    0.47926000   -0.87357000 
H                  -0.36369000   -1.02679000    0.13956000 
H                  -0.30742000    0.54488000    0.90148000 
H                   2.03637000   -0.86532000   -0.53152000 
H                   1.90991000    0.93354000   -0.45229000 


