%nprocshared=2 
%mem=2GB 
# b3lyp/6-31g(d) 

tmpdir/M2_conf_0_71.gjf 

0 1
H                   0.00000000    0.00000000    0.00000000 
C                   1.09780000    0.00000000    0.00000000 
C                   1.62119000    0.00000000    1.41948000 
H                   1.49139000   -0.89308000   -0.65125000 
H                   1.42986000    0.88688000   -0.54412000 
H                   2.58900000    0.23864000    1.60979000 
O                   0.88724000   -0.31405000    2.35967000 


