%nprocshared=2 
%mem=2GB 
# b3lyp/6-31g(d) 

tmpdir/M2_conf_0_14.gjf 

0 1
C                   0.00000000    0.00000000    0.00000000 
C                   1.56430000    0.00000000    0.00000000 
H                   1.93287000    0.00000000    1.03450000 
H                  -0.53580000   -0.32453000    0.93193000 
H                  -0.36769000   -0.58470000   -0.85457000 
H                  -0.31985000    1.03085000   -0.19665000 
H                   2.09772000   -0.79567000   -0.58533000 
H                   1.88310000    0.96001000   -0.42522000 


