%nprocshared=2 
%mem=2GB 
# b3lyp/6-31g(d) 

tmpdir/M2_conf_0_42.gjf 

0 1
C                   0.00000000    0.00000000    0.00000000 
C                   1.55130000    0.00000000    0.00000000 
H                   1.93308000    0.00000000    1.02821000 
H                  -0.54033000    0.53368000    0.83997000 
H                  -0.36480000    0.37262000   -0.96718000 
H                  -0.30847000   -1.05213000    0.03876000 
H                   2.04155000    0.86401000   -0.52926000 
H                   1.90381000   -0.92881000   -0.46714000 


