%nprocshared=2 
%mem=2GB 
# b3lyp/6-31g(d) 

tmpdir/M2_conf_0_33.gjf 

0 1
C                   0.00000000    0.00000000    0.00000000 
C                   1.55490000    0.00000000    0.00000000 
C                   2.08249000    0.00000000    1.36091000 
H                  -0.48418000    0.73686000    0.69487000 
H                  -0.34940000   -1.01053000    0.24840000 
H                  -0.33480000    0.19975000   -1.02667000 
H                   1.93362000   -0.85949000   -0.56738000 
H                   1.92930000    0.90080000   -0.50592000 
N                   2.11402000    0.15316000    2.46469000 


