%nprocshared=2 
%mem=2GB 
# b3lyp/6-31g(d) 

tmpdir/M2_conf_0_87.gjf 

0 1
C                   0.00000000    0.00000000    0.00000000 
C                   1.39790000    0.00000000    0.00000000 
C                  -0.69881000    0.00000000   -1.20550000 
H                  -0.54450000   -0.00263000    0.94044000 
C                   2.09077000    0.00106000   -1.21031000 
H                   1.94235000   -0.00197000    0.94036000 


