%nprocshared=2 
%mem=2GB 
# b3lyp/6-31g(d) 

tmpdir/M2_conf_0_6.gjf 

0 1
C                   0.00000000    0.00000000    0.00000000 
C                   1.56430000    0.00000000    0.00000000 
H                   1.87938000    0.00000000    1.05088000 
H                  -0.53342000   -0.72406000   -0.67189000 
H                  -0.36948000    1.01586000   -0.19379000 
H                  -0.31880000   -0.23780000    1.02268000 
H                   2.10010000    0.85461000   -0.49341000 
H                   1.93199000   -0.94900000   -0.41421000 


