%nprocshared=2 
%mem=2GB 
# b3lyp/6-31g(d) 

tmpdir/M2_conf_0_62.gjf 

0 1
N                   0.00000000    0.00000000    0.00000000 
N                   1.23580000    0.00000000    0.00000000 
N                   2.13409000    0.00000000    0.70612000 
H                  -0.44812000    0.00560000   -0.94414000 


