%nprocshared=2 
%mem=2GB 
# b3lyp/6-31g(d) 

tmpdir/M2_conf_0_1.gjf 

0 1
C                   0.00000000    0.00000000    0.00000000 
C                   1.54680000    0.00000000    0.00000000 
H                  -0.54033000    0.00000000   -0.99517000 
H                  -0.36480000   -0.83318000    0.61652000 
H                  -0.30847000    0.90883000    0.53150000 
H                   2.03705000   -1.01309000   -0.01662000 
H                   1.89931000    0.53344000    0.89238000 
H                   1.92444000    0.55221000   -0.86915000 


