%nprocshared=2 
%mem=2GB 
# b3lyp/6-31g(d) 

tmpdir/M2_conf_0_86.gjf 

0 1
C                   0.00000000    0.00000000    0.00000000 
C                   1.39670000    0.00000000    0.00000000 
H                   1.93670000    0.00000000    0.94442000 
O                  -0.61456000   -0.00260000   -1.06488000 
H                  -0.54034000    0.00214000    0.94272000 
O                   2.02492000   -0.00519000   -1.06141000 


