%nprocshared=2 
%mem=2GB 
# b3lyp/6-31g(d) 

tmpdir/M2_conf_0_77.gjf 

0 1
C                   0.00000000    0.00000000    0.00000000 
C                   1.39400000    0.00000000    0.00000000 
H                  -0.51536000    0.00000000   -0.87420000 
H                  -0.54436000    0.00526000    0.94132000 
H                   1.90148000    0.00015000   -0.87545000 
H                   1.93456000   -0.00280000    0.94271000 


