%nprocshared=2 
%mem=2GB 
# b3lyp/6-31g(d) 

tmpdir/M2_conf_0_56.gjf 

0 1
C                   0.00000000    0.00000000    0.00000000 
C                   1.46270000    0.00000000    0.00000000 
C                   2.52470000    0.00000000    0.58071000 
H                  -0.31498000   -0.47914000    0.96860000 
H                  -0.36504000    1.04276000   -0.02057000 
H                  -0.41942000   -0.56672000   -0.93283000 
H                   3.21435000   -0.09852000    1.37512000 


