%nprocshared=2 
%mem=2GB 
# b3lyp/6-31g(d) 

tmpdir/M2_conf_0_44.gjf 

0 1
C                   0.00000000    0.00000000    0.00000000 
C                   1.55500000    0.00000000    0.00000000 
H                   1.88554000    0.00000000    1.04581000 
H                  -0.35957000    0.20652000   -1.02425000 
H                  -0.29631000   -0.97598000    0.28447000 
H                  -0.44426000    0.80152000    0.72626000 
H                   2.04407000   -0.84599000   -0.55318000 
H                   1.89460000    0.94897000   -0.43507000 


