%nprocshared=2 
%mem=2GB 
# b3lyp/6-31g(d) 

tmpdir/M2_conf_0_83.gjf 

0 1
C                   0.00000000    0.00000000    0.00000000 
H                   1.08810000    0.00000000    0.00000000 
O                  -0.60923000    0.00000000   -1.07244000 
H                  -0.50218000   -0.00429000    0.87756000 


