%nprocshared=2 
%mem=2GB 
# b3lyp/6-31g(d) 

tmpdir/M2_conf_0_55.gjf 

0 1
C                   0.00000000    0.00000000    0.00000000 
C                   1.23610000    0.00000000    0.00000000 
H                  -0.96577000    0.00000000   -0.43424000 
H                   2.22232000    0.09852000   -0.36615000 


