%nprocshared=2 
%mem=2GB 
# b3lyp/6-31g(d) 

tmpdir/M2_conf_0_92.gjf 

0 1
C                   0.00000000    0.00000000    0.00000000 
C                   1.39460000    0.00000000    0.00000000 
H                  -0.50540000    0.00000000   -0.87573000 
H                  -0.54642000    0.00016000    0.93922000 
H                   1.89733000    0.00031000   -0.87818000 
H                   1.94003000    0.00082000    0.93979000 


