%nprocshared=2 
%mem=2GB 
# b3lyp/6-31g(d) 

tmpdir/M2_conf_0_8.gjf 

0 1
C                   0.00000000    0.00000000    0.00000000 
C                   1.55130000    0.00000000    0.00000000 
H                   1.85848000    0.00000000    1.05322000 
H                  -0.49025000    0.49709000   -0.88291000 
H                  -0.35251000    0.50102000    0.91098000 
H                  -0.37764000   -1.02904000    0.03791000 
H                   2.09163000   -0.85905000   -0.50239000 
H                   1.91610000    0.95280000   -0.40798000 


