%nprocshared=2 
%mem=2GB 
# b3lyp/6-31g(d) 

tmpdir/M2_conf_0_91.gjf 

0 1
C                   0.00000000    0.00000000    0.00000000 
C                   1.39780000    0.00000000    0.00000000 
H                   1.94016000    0.00000000    0.94168000 
O                  -0.61084000    0.00205000   -1.06702000 
H                  -0.54445000   -0.00066000    0.94036000 
O                   2.01386000    0.00297000   -1.06275000 


