%nprocshared=2 
%mem=2GB 
# b3lyp/6-31g(d) 

tmpdir/M2_conf_0_51.gjf 

0 1
C                   0.00000000    0.00000000    0.00000000 
C                   1.55500000    0.00000000    0.00000000 
O                   2.06628000    0.00000000    1.32916000 
H                  -0.48907000    0.15812000   -0.99835000 
H                  -0.33960000   -0.95968000    0.41092000 
H                  -0.31976000    0.77746000    0.70447000 
H                   1.91457000   -0.89768000   -0.53470000 
H                   1.85131000    0.86614000   -0.53223000 
H                   2.03874000   -0.86688000    1.76551000 


