%nprocshared=2 
%mem=2GB 
# b3lyp/6-31g(d) 

tmpdir/M2_conf_0_81.gjf 

0 1
C                   0.00000000    0.00000000    0.00000000 
C                   1.39340000    0.00000000    0.00000000 
H                   1.94709000    0.00000000    0.93587000 
H                  -0.50748000   -0.00504000   -0.87543000 
H                  -0.54056000    0.00806000    0.94268000 
H                   1.90876000   -0.00488000   -0.87419000 


