%nprocshared=2 
%mem=2GB 
# b3lyp/6-31g(d) 

tmpdir/M2_conf_0_37.gjf 

0 1
C                   0.00000000    0.00000000    0.00000000 
C                   1.54730000    0.00000000    0.00000000 
H                  -0.48907000    0.00000000   -1.01080000 
H                  -0.33960000   -0.88348000    0.55614000 
H                  -0.31976000    0.87810000    0.57417000 
H                   1.90687000   -0.97027000   -0.38769000 
H                   1.84361000    0.77222000   -0.66117000 
H                   1.99156000    0.16920000    1.06830000 


