%nprocshared=2 
%mem=2GB 
# b3lyp/6-31g(d) 

tmpdir/M2_conf_0_96.gjf 

0 1
C                   0.00000000    0.00000000    0.00000000 
C                   1.39460000    0.00000000    0.00000000 
H                   1.94151000    0.00000000    0.93893000 
H                  -0.50273000   -0.00046000   -0.87818000 
H                  -0.54543000   -0.00066000    0.93979000 
H                   1.90000000   -0.00015000   -0.87573000 


