%nprocshared=2 
%mem=2GB 
# b3lyp/6-31g(d) 

tmpdir/M2_conf_0_109.gjf 

0 1
H                   0.00000000    0.00000000    0.00000000 
C                   1.09320000    0.00000000    0.00000000 
H                   1.44117000    0.00000000    1.04362000 
H                   1.42519000   -0.94516000   -0.58625000 
H                   1.44843000    0.92365000   -0.48554000 


