%nprocshared=2 
%mem=2GB 
# b3lyp/6-31g(d) 

tmpdir/M2_conf_0_103.gjf 

0 1
C                   0.00000000    0.00000000    0.00000000 
H                   1.09330000    0.00000000    0.00000000 
H                  -0.33199000    0.00000000   -1.11221000 
H                  -0.34943000    0.88645000    0.54984000 
H                  -0.35523000   -0.89947000    0.52898000 


