%nprocshared=2 
%mem=2GB 
# b3lyp/6-31g(d) 

tmpdir/M2_conf_0_22.gjf 

0 1
C                   0.00000000    0.00000000    0.00000000 
C                   1.55090000    0.00000000    0.00000000 
C                   2.24105000    0.00000000    1.39335000 
H                  -0.53808000   -0.99520000    0.04885000 
H                  -0.36369000    0.65633000    0.80188000 
H                  -0.30742000    0.48296000   -0.93611000 
H                   1.90991000   -0.87400000   -0.55873000 
H                   1.91079000    0.88409000   -0.54305000 
H                   3.31833000   -0.17671000    1.28238000 
H                   2.13099000    0.98609000    1.86567000 
H                   1.75607000   -0.73544000    1.97673000 


