%nprocshared=2 
%mem=2GB 
# b3lyp/6-31g(d) 

tmpdir/M2_conf_0_99.gjf 

0 1
C                   0.00000000    0.00000000    0.00000000 
C                   1.39780000    0.00000000    0.00000000 
H                   1.94373000    0.00000000    0.93950000 
O                  -0.61606000   -0.00223000   -1.06275000 
H                  -0.54450000   -0.00066000    0.94045000 
O                   2.00864000   -0.00130000   -1.06702000 


