%nprocshared=2 
%mem=2GB 
# b3lyp/6-31g(d) 

tmpdir/M2_conf_0_28.gjf 

0 1
C                   0.00000000    0.00000000    0.00000000 
H                   1.09610000    0.00000000    0.00000000 
H                  -0.38848000    0.00000000   -1.05644000 
H                  -0.31468000    0.91854000    0.51462000 
H                  -0.41658000   -0.84354000    0.48095000 


