%nprocshared=2 
%mem=2GB 
# b3lyp/6-31g(d) 

tmpdir/M2_conf_0_11.gjf 

0 1
C                   0.00000000    0.00000000    0.00000000 
H                   1.09950000    0.00000000    0.00000000 
H                  -0.38098000    0.00000000   -1.06639000 
H                  -0.37178000    0.79566000    0.69925000 
H                  -0.29324000   -0.96003000    0.44319000 


