%nprocshared=2 
%mem=2GB 
# b3lyp/6-31g(d) 

tmpdir/M2_conf_0_67.gjf 

-1 1
N                   0.00000000    0.00000000    0.00000000 
C                   1.49270000    0.00000000    0.00000000 
H                   1.85699000    0.00000000    1.03560000 
H                  -0.40584000   -0.75195000    0.40709000 
H                   1.75434000    0.96222000   -0.44563000 
H                   1.93309000   -0.82877000   -0.56450000 


