%nprocshared=2 
%mem=2GB 
# b3lyp/6-31g(d) 

tmpdir/M2_conf_0_32.gjf 

0 1
C                   0.00000000    0.00000000    0.00000000 
C                   1.55490000    0.00000000    0.00000000 
H                   1.92533000    0.00000000    1.03458000 
H                  -0.48418000   -0.96668000    0.30220000 
H                  -0.34940000    0.27827000   -1.00271000 
H                  -0.33480000    0.79734000    0.67691000 
H                   1.93362000    0.91566000   -0.47139000 
H                   1.86241000   -0.88137000   -0.49501000 


