%nprocshared=2 
%mem=2GB 
# b3lyp/6-31g(d) 

tmpdir/M2_conf_0_69.gjf 

0 1
H                   0.00000000    0.00000000    0.00000000 
C                   1.09220000    0.00000000    0.00000000 
H                   1.42414000    0.00000000    1.04641000 
H                   1.37326000   -1.02210000   -0.50294000 
H                   1.48647000    0.87426000   -0.52885000 


