%nprocshared=2 
%mem=2GB 
# b3lyp/6-31g(d) 

tmpdir/M2_conf_0_111.gjf 

0 1
H                   0.00000000    0.00000000    0.00000000 
C                   1.10010000    0.00000000    0.00000000 
H                   1.44968000    0.00000000    1.04540000 
H                   1.55045000   -0.88615000   -0.59929000 
H                   1.44734000    0.91525000   -0.48665000 


