%nprocshared=2 
%mem=2GB 
# b3lyp/6-31g(d) 

tmpdir/M2_conf_0_98.gjf 

0 1
C                   0.00000000    0.00000000    0.00000000 
C                   1.39780000    0.00000000    0.00000000 
C                   2.08877000    0.00000000    1.21139000 
O                  -0.61606000    0.00093000    1.06275000 
H                  -0.54450000    0.00181000   -0.94044000 
H                   1.94225000    0.00115000   -0.94036000 
H                   1.57849000   -0.00031000    2.08428000 
H                   3.17533000    0.00049000    1.22069000 


