%nprocshared=2 
%mem=2GB 
# b3lyp/6-31g(d) 

tmpdir/M2_conf_0_79.gjf 

0 1
C                   0.00000000    0.00000000    0.00000000 
C                   1.40190000    0.00000000    0.00000000 
C                   2.10407000    0.00000000    1.20355000 
H                  -0.55404000   -0.02044000   -0.94450000 
O                  -0.59740000   -0.00245000    1.07907000 
H                   1.93637000   -0.00529000   -0.94697000 
H                   1.60363000   -0.00015000    2.08304000 
H                   3.19073000    0.00280000    1.19539000 


