%nprocshared=2 
%mem=2GB 
# b3lyp/6-31g(d) 

tmpdir/M2_conf_0_76.gjf 

0 1
C                   0.00000000    0.00000000    0.00000000 
C                   1.40190000    0.00000000    0.00000000 
C                   2.08148000    0.00000000    1.22297000 
O                  -0.62383000   -0.00240000    1.05820000 
H                  -0.53447000    0.00744000   -0.94696000 
H                   1.95594000    0.02259000   -0.94445000 
H                   1.57105000   -0.00304000    2.09577000 
H                   3.16933000   -0.00132000    1.23322000 


