%nprocshared=2 
%mem=2GB 
# b3lyp/6-31g(d) 

tmpdir/M2_conf_0_50.gjf 

0 1
C                   0.00000000    0.00000000    0.00000000 
C                   1.55500000    0.00000000    0.00000000 
C                   2.03024000    0.00000000    1.38334000 
H                  -0.48907000    0.76781000    0.65740000 
H                  -0.33960000    0.15214000   -1.03281000 
H                  -0.31976000   -1.00724000    0.29358000 
H                   1.91457000    0.92554000   -0.48489000 
H                   1.99926000   -0.92154000   -0.56627000 
N                   1.97306000    0.20270000    2.47807000 


