%nprocshared=2 
%mem=2GB 
# b3lyp/6-31g(d) 

tmpdir/M2_conf_0_10.gjf 

0 1
C                   0.00000000    0.00000000    0.00000000 
C                   1.54520000    0.00000000    0.00000000 
H                  -0.53808000    0.00000000   -0.99640000 
H                  -0.36369000   -0.83309000    0.61623000 
H                  -0.30742000    0.91131000    0.52827000 
H                   2.03067000   -1.01431000   -0.04979000 
H                   1.90421000    0.60091000   -0.84556000 
H                   1.90509000    0.49905000    0.90965000 


