%nprocshared=2 
%mem=2GB 
# b3lyp/6-31g(d) 

tmpdir/M2_conf_0_23.gjf 

0 1
C                   0.00000000    0.00000000    0.00000000 
C                   1.55090000    0.00000000    0.00000000 
H                   1.91154000    0.00000000    1.03677000 
H                  -0.53808000    0.57719000    0.81219000 
H                  -0.36369000    0.32210000   -0.98490000 
H                  -0.30742000   -1.04885000    0.09730000 
H                   2.03637000    0.85563000   -0.54699000 
H                   1.91079000   -0.93374000   -0.45239000 


