%nprocshared=2 
%mem=2GB 
# b3lyp/6-31g(d) 

tmpdir/M2_conf_0_94.gjf 

0 1
C                   0.00000000    0.00000000    0.00000000 
C                   1.39670000    0.00000000    0.00000000 
C                   2.09273000    0.00000000    1.20849000 
O                  -0.62822000   -0.00259000    1.06142000 
H                  -0.54033000   -0.00231000   -0.94423000 
H                   1.93704000   -0.00016000   -0.94273000 
H                   1.58266000   -0.00031000    2.08243000 
H                   3.17933000   -0.00082000    1.21209000 


