%nprocshared=2 
%mem=2GB 
# b3lyp/6-31g(d) 

tmpdir/M2_conf_0_72.gjf 

0 1
C                   0.00000000    0.00000000    0.00000000 
C                   1.40250000    0.00000000    0.00000000 
H                  -0.55404000    0.00000000   -0.94472000 
C                  -0.67766000   -0.02927000    1.22369000 
C                   2.11012000   -0.02598000    1.20007000 
H                   1.93697000    0.01521000   -0.94686000 


