%nprocshared=2 
%mem=2GB 
# b3lyp/6-31g(d) 

tmpdir/M2_ref_80.gjf 

0 1
C                  -0.20298400   -0.39175000   30.53635000 
C                  -0.93570400   -1.23058000   29.68505200 
H                  -0.52575800   -2.19820500   29.40543500 
H                   0.78087335   -0.70009793   30.90562524 
O                  -0.67236341    0.70738800   30.84124367 
O                  -2.02943328   -0.87757655   29.25127136 


