%nprocshared=2 
%mem=2GB 
# b3lyp/6-31g(d) 

tmpdir/M2_ref_79.gjf 

0 1
C                  -0.20298400   -0.39175000   30.53635000 
C                  -0.93570400   -1.23058000   29.68505200 
C                  -2.17630000   -0.83017500   29.19302300 
H                   0.78087335   -0.70009793   30.90562524 
O                  -0.67236341    0.70738800   30.84124367 
H                  -0.52575800   -2.19820500   29.40543500 
H                  -2.55646321    0.07207868   29.44859312 
H                  -2.73598500   -1.49051300   28.53601100 


