%nprocshared=2 
%mem=2GB 
# b3lyp/6-31g(d) 

tmpdir/M2_ref_76.gjf 

0 1
C                  -0.93570400   -1.23058000   29.68505200 
C                  -0.20298400   -0.39175000   30.53635000 
C                  -0.73539200    0.85498100   30.88218500 
O                  -2.02943328   -0.87757655   29.25127136 
H                  -0.52575800   -2.19820500   29.40543500 
H                   0.78087335   -0.70009793   30.90562524 
H                  -1.63591125    1.14684170   30.52697921 
H                  -0.17602800    1.51346300   31.54320800 


