%nprocshared=2 
%mem=2GB 
# b3lyp/6-31g(d) 

tmpdir/M2_ref_100.gjf 

0 1
C                  -1.97939900    1.25816700   30.39149200 
C                  -2.70147000    0.41622800   29.54607600 
H                  -3.66985700    0.72719100   29.16358400 
H                  -1.07887975    0.96630630   30.74669779 
H                  -2.38170600    2.22826300   30.67045200 
H                  -2.32130679   -0.48602568   29.29050588 


