%nprocshared=2 
%mem=2GB 
# b3lyp/6-31g(d) 

tmpdir/M2_ref_84.gjf 

0 1
C                  -0.20298400   -0.39175000   30.53635000 
C                  -0.73539200    0.85498100   30.88218500 
C                  -1.97939900    1.25816700   30.39149200 
H                   0.78087335   -0.70009793   30.90562524 
H                  -0.73338975   -0.99896729   29.92010730 
H                  -0.17602800    1.51346300   31.54320800 
O                  -2.61598835    0.51590011   29.64615973 
H                  -2.38170600    2.22826300   30.67045200 


