%nprocshared=2 
%mem=2GB 
# b3lyp/6-31g(d) 

tmpdir/M2_ref_40.gjf 

0 1
C                  -0.60648200    1.61121400    0.34594700 
C                   0.76845600    1.14678000   -0.20198100 
C                   1.27729300   -0.22630300    0.32117600 
H                  -1.54262585    1.30197135   -0.21113612 
H                  -0.69478600    1.32204100    1.40230700 
H                  -0.58315000    2.70805500    0.34805200 
H                   1.52179200    1.90551600    0.04701100 
H                   0.73576000    1.07978600   -1.29627400 
H                   1.51941000   -0.13440500    1.39535300 
H                   0.47391853   -0.90543982    0.20055922 
H                   2.22784672   -0.59522038   -0.25125675 


