%nprocshared=2 
%mem=2GB 
# b3lyp/6-31g(d) 

tmpdir/M2_ref_38.gjf 

0 1
C                   0.76845600    1.14678000   -0.20198100 
H                   1.52179200    1.90551600    0.04701100 
H                  -0.22684237    1.48297727    0.19465641 
H                   1.13679598    0.15282444    0.17672503 
H                   0.73576000    1.07978600   -1.29627400 


