%nprocshared=2 
%mem=2GB 
# b3lyp/6-31g(d) 

tmpdir/M2_ref_89.gjf 

0 1
C                  -0.93570400   -1.23058000   29.68505200 
C                  -2.17630000   -0.83017500   29.19302300 
C                  -2.70147000    0.41622800   29.54607600 
H                  -0.40529825   -0.62336271   30.30129470 
H                  -0.52575800   -2.19820500   29.40543500 
H                  -2.73598500   -1.49051300   28.53601100 
O                  -2.06488065    1.15849489   30.29140827 
H                  -3.66985700    0.72719100   29.16358400 


