%nprocshared=2 
%mem=2GB 
# b3lyp/6-31g(d) 

tmpdir/M2_ref_85.gjf 

0 1
C                  -0.20298400   -0.39175000   30.53635000 
C                  -0.73539200    0.85498100   30.88218500 
H                  -0.17602800    1.51346300   31.54320800 
H                   0.78087335   -0.70009793   30.90562524 
H                  -0.73338975   -0.99896729   29.92010730 
H                  -1.63591125    1.14684170   30.52697921 


