%nprocshared=2 
%mem=2GB 
# b3lyp/6-31g(d) 

tmpdir/M2_ref_52.gjf 

0 1
H                   1.51941000   -0.13440500    1.39535300 
C                   1.27729300   -0.22630300    0.32117600 
C                   0.16748500   -1.16448500    0.15455200 
H                   0.90895302    0.76765256   -0.05753003 
H                   2.22784672   -0.59522038   -0.25125675 
N                  -0.90094120   -1.47035365    0.06729923 


