%nprocshared=2 
%mem=2GB 
# b3lyp/6-31g(d) 

tmpdir/M2_ref_97.gjf 

0 1
C                  -2.70147000    0.41622800   29.54607600 
H                  -3.66985700    0.72719100   29.16358400 
H                  -2.32130679   -0.48602568   29.29050588 
O                  -2.06488065    1.15849489   30.29140827 


