%nprocshared=2 
%mem=2GB 
# b3lyp/6-31g(d) 

tmpdir/M2_ref_88.gjf 

0 1
C                  -2.17630000   -0.83017500   29.19302300 
H                  -2.73598500   -1.49051300   28.53601100 
O                  -1.08257072   -1.18317845   29.62680364 
H                  -2.55646321    0.07207868   29.44859312 


