%nprocshared=2 
%mem=2GB 
# b3lyp/6-31g(d) 

tmpdir/M2_ref_31.gjf 

0 1
C                  -2.80943300    0.09912500    0.20928300 
C                  -2.43447500   -1.37142600   -0.12932500 
H                  -3.01433300   -2.06339200    0.49446800 
H                  -2.15089147    0.88446241   -0.24887096 
H                  -2.80456000    0.21850700    1.30042000 
H                  -3.84544300    0.26372000   -0.11570400 
H                  -2.69653400   -1.59376100   -1.17314100 
H                  -1.39074793   -1.46204060    0.00758790 


