%nprocshared=2 
%mem=2GB 
# b3lyp/6-31g(d) 

tmpdir/M2_ref_20.gjf 

0 1
C                  -2.80943300    0.09912500    0.20928300 
H                  -2.80456000    0.21850700    1.30042000 
H                  -2.15089147    0.88446241   -0.24887096 
H                  -2.53800615   -0.96538628   -0.03583059 
H                  -3.84544300    0.26372000   -0.11570400 


