%nprocshared=2 
%mem=2GB 
# b3lyp/6-31g(d) 

tmpdir/M2_ref_93.gjf 

0 1
C                  -1.97939900    1.25816700   30.39149200 
H                  -2.38170600    2.22826300   30.67045200 
H                  -1.07887975    0.96630630   30.74669779 
O                  -2.61598835    0.51590011   29.64615973 


