%nprocshared=2 
%mem=2GB 
# b3lyp/6-31g(d) 

tmpdir/M2_ref_22.gjf 

0 1
C                  -1.89970200    1.18401600   -0.42362600 
C                  -2.80943300    0.09912500    0.20928300 
C                  -2.43447500   -1.37142600   -0.12932500 
H                  -0.96355815    1.49325865    0.13345712 
H                  -1.63877100    0.88728200   -1.44823000 
H                  -2.52022500    2.08294600   -0.52774400 
H                  -2.80456000    0.21850700    1.30042000 
H                  -3.84544300    0.26372000   -0.11570400 
H                  -3.01433300   -2.06339200    0.49446800 
H                  -2.69653400   -1.59376100   -1.17314100 
H                  -1.39074793   -1.46204060    0.00758790 


