%nprocshared=2 
%mem=2GB 
# b3lyp/6-31g(d) 

tmpdir/M2_ref_74.gjf 

0 1
C                   1.15614900   -0.81771200   31.04647900 
C                  -0.20298400   -0.39175000   30.53635000 
C                  -0.93570400   -1.23058000   29.68505200 
H                   1.99542718   -0.79708707   30.22690376 
H                   1.14245600   -1.85735800   31.38092600 
H                   1.45905300   -0.19669200   31.89953500 
O                  -0.67236341    0.70738800   30.84124367 
O                  -2.02943328   -0.87757655   29.25127136 
H                  -0.52575800   -2.19820500   29.40543500 


