%nprocshared=2 
%mem=2GB 
# b3lyp/6-31g(d) 

tmpdir/M2_ref_11.gjf 

0 1
C                  -1.89970200    1.18401600   -0.42362600 
H                  -1.63877100    0.88728200   -1.44823000 
H                  -0.96355815    1.49325865    0.13345712 
H                  -2.55824353    0.39867859    0.03452796 
H                  -2.52022500    2.08294600   -0.52774400 


