%nprocshared=4 
%mem=4GB 
# b3lyp/6-31g(d) 

tmpdir/M3_conf_0_30.gjf 

0 1
C                   0.00000000    0.00000000    0.00000000 
C                   1.47240000    0.00000000    0.00000000 
H                  -0.32759000    0.00000000   -1.07688000 
H                  -0.43262000    0.85945000    0.52750000 
H                  -0.37512000   -0.90075000    0.50548000 
N                   2.51295000   -0.15316000   -0.36957000 


