%nprocshared=4 
%mem=4GB 
# b3lyp/6-31g(d) 

tmpdir/M3_conf_0_81.gjf 

0 1
H                   0.00000000    0.00000000    0.00000000 
C                   1.09320000    0.00000000    0.00000000 
H                   1.45098000    0.00000000    1.04262000 
H                   1.42519000    0.95871000   -0.56382000 
H                   1.44263000   -0.92333000   -0.48537000 


