%nprocshared=4 
%mem=4GB 
# b3lyp/6-31g(d) 

tmpdir/M3_conf_0_35.gjf 

0 1
H                   0.00000000    0.00000000    0.00000000 
C                   1.09730000    0.00000000    0.00000000 
C                   1.62536000    0.00000000    1.36073000 
H                   1.48578000    0.91774000   -0.52326000 
H                   1.41198000   -0.90202000   -0.54306000 
N                   2.30378000    0.23481000    2.21361000 


