%nprocshared=4 
%mem=4GB 
# b3lyp/6-31g(d) 

tmpdir/M3_conf_0_52.gjf 

0 1
H                   0.00000000    0.00000000    0.00000000 
C                   1.10500000    0.00000000    0.00000000 
C                   1.57928000    0.00000000    1.38367000 
H                   1.47127000   -0.95897000   -0.46173000 
H                   1.48395000    0.94389000   -0.57683000 
N                   1.91748000   -0.45707000    2.34257000 


