%nprocshared=4 
%mem=4GB 
# b3lyp/6-31g(d) 

tmpdir/M3_conf_0_71.gjf 

0 1
H                   0.00000000    0.00000000    0.00000000 
C                   1.09780000    0.00000000    0.00000000 
C                   1.62119000    0.00000000    1.41948000 
C                   2.95818000    0.32967000    1.68238000 
C                   0.78864000   -0.35624000    2.48598000 
C                   3.44977000    0.30558000    2.98596000 
H                   3.61385000    0.60057000    0.85827000 
C                   1.27845000   -0.37972000    3.79377000 
H                  -0.25097000   -0.61270000    2.29370000 
C                   2.60963000   -0.04891000    4.04561000 
H                   4.48734000    0.56587000    3.17729000 
H                   0.61975000   -0.65599000    4.61260000 
H                   2.99288000   -0.06563000    5.06224000 
H                   1.49139000   -0.89308000   -0.65125000 
H                   1.42986000    0.88688000   -0.54412000 


