%nprocshared=4 
%mem=4GB 
# b3lyp/6-31g(d) 

tmpdir/M3_conf_0_19.gjf 

0 1
C                   0.00000000    0.00000000    0.00000000 
C                   1.54310000    0.00000000    0.00000000 
H                  -0.48418000    0.00000000   -1.01282000 
H                  -0.34940000    0.87401000    0.56477000 
H                  -0.33480000   -0.88408000    0.55889000 
H                   1.92182000    0.17671000    1.01460000 
H                   1.91750000   -0.98609000   -0.30827000 
H                   1.85061000    0.73544000   -0.69352000 


