%nprocshared=4 
%mem=4GB 
# b3lyp/6-31g(d) 

tmpdir/M3_conf_0_48.gjf 

0 1
C                   0.00000000    0.00000000    0.00000000 
O                   1.43220000    0.00000000    0.00000000 
H                  -0.42766000    0.00000000   -1.04119000 
H                  -0.35811000    0.89774000    0.53558000 
H                  -0.37982000   -0.86617000    0.47618000 
H                   1.82958000    0.86688000   -0.18236000 


