%nprocshared=4 
%mem=4GB 
# b3lyp/6-31g(d) 

tmpdir/M3_conf_0_38.gjf 

0 1
C                   0.00000000    0.00000000    0.00000000 
H                   1.09730000    0.00000000    0.00000000 
H                  -0.36057000    0.00000000   -1.06343000 
H                  -0.34820000    0.86110000    0.63579000 
H                  -0.31701000   -0.91993000    0.50616000 


