%nprocshared=4 
%mem=4GB 
# b3lyp/6-31g(d) 

tmpdir/M3_conf_0_20.gjf 

0 1
C                   0.00000000    0.00000000    0.00000000 
H                   1.09830000    0.00000000    0.00000000 
H                  -0.36715000    0.00000000   -1.06086000 
H                  -0.35828000   -0.85565000    0.63755000 
H                  -0.30970000    0.93373000    0.48814000 


