%nprocshared=4 
%mem=4GB 
# b3lyp/6-31g(d) 

tmpdir/M3_conf_0_59.gjf 

-1 1
N                   0.00000000    0.00000000    0.00000000 
C                   1.47500000    0.00000000    0.00000000 
H                  -0.40584000    0.00000000   -0.85508000 
H                   1.73664000   -0.06603000    1.05834000 
H                   1.84326000   -0.90947000   -0.49236000 
H                   1.91539000    0.89091000   -0.46022000 


