%nprocshared=4 
%mem=4GB 
# b3lyp/6-31g(d) 

tmpdir/M3_conf_0_49.gjf 

0 1
C                   0.00000000    0.00000000    0.00000000 
C                   1.55500000    0.00000000    0.00000000 
H                   1.91494000    0.00000000    1.04474000 
H                  -0.48907000   -0.93864000    0.37505000 
H                  -0.33960000    0.84415000    0.61421000 
H                  -0.31976000    0.20737000   -1.02846000 
H                   1.85131000   -0.90050000   -0.47177000 
H                   1.99926000    0.92926000   -0.55351000 


