%nprocshared=4 
%mem=4GB 
# b3lyp/6-31g(d) 

tmpdir/M3_conf_0_7.gjf 

0 1
C                   0.00000000    0.00000000    0.00000000 
C                   1.55130000    0.00000000    0.00000000 
H                   1.92062000    0.00000000    1.03488000 
H                  -0.49025000    0.61597000    0.80449000 
H                  -0.35251000   -1.03465000    0.10200000 
H                  -0.37764000    0.37020000   -0.96089000 
H                   2.09163000    0.79998000   -0.59195000 
H                   1.85977000   -0.96785000   -0.41442000 


