%nprocshared=4 
%mem=4GB 
# b3lyp/6-31g(d) 

tmpdir/M3_conf_0_5.gjf 

0 1
C                   0.00000000    0.00000000    0.00000000 
C                   1.56430000    0.00000000    0.00000000 
H                   1.93145000    0.00000000    1.03565000 
H                  -0.53342000   -0.32631000    0.93232000 
H                  -0.36948000   -0.58398000   -0.85352000 
H                  -0.31880000    1.03242000   -0.19116000 
H                   2.10010000   -0.79408000   -0.58588000 
H                   1.88415000    0.96182000   -0.41981000 


