%nprocshared=4 
%mem=4GB 
# b3lyp/6-31g(d) 

tmpdir/M3_conf_0_66.gjf 

-1 1
N                   0.00000000    0.00000000    0.00000000 
C                   1.49270000    0.00000000    0.00000000 
H                   1.74934000    0.00000000    1.06162000 
H                  -0.40584000   -0.05324000   -0.85342000 
H                   1.86096000   -0.93844000   -0.43461000 
H                   1.93309000    0.86052000   -0.51481000 


