%nprocshared=4 
%mem=4GB 
# b3lyp/6-31g(d) 

tmpdir/M3_conf_0_12.gjf 

0 1
C                   0.00000000    0.00000000    0.00000000 
H                   1.09740000    0.00000000    0.00000000 
H                  -0.32900000    0.00000000   -1.08355000 
H                  -0.31451000   -0.85735000    0.65289000 
H                  -0.29348000    0.94558000    0.47517000 


