%nprocshared=4 
%mem=4GB 
# b3lyp/6-31g(d) 

tmpdir/M3_conf_0_64.gjf 

0 1
C                   0.00000000    0.00000000    0.00000000 
H                   1.09800000    0.00000000    0.00000000 
H                  -0.39359000    0.00000000   -1.10532000 
H                  -0.33206000   -0.96219000    0.39600000 
H                  -0.38408000    0.82871000    0.60430000 


