%nprocshared=4 
%mem=4GB 
# b3lyp/6-31g(d) 

tmpdir/M3_conf_0_21.gjf 

0 1
C                   0.00000000    0.00000000    0.00000000 
H                   1.09850000    0.00000000    0.00000000 
H                  -0.36789000    0.00000000   -1.06061000 
H                  -0.34316000    0.86530000    0.63284000 
H                  -0.30956000   -0.93364000    0.48727000 


