%nprocshared=4 
%mem=4GB 
# b3lyp/6-31g(d) 

tmpdir/M3_conf_0_72.gjf 

0 1
O                   0.00000000    0.00000000    0.00000000 
C                   1.41590000    0.00000000    0.00000000 
H                  -0.40032000    0.00000000   -0.89242000 
H                   1.72858000    0.11568000    1.04112000 
H                   1.84274000   -0.93538000   -0.39128000 
H                   1.82115000    0.83961000   -0.58812000 


