%nprocshared=4 
%mem=4GB 
# b3lyp/6-31g(d) 

tmpdir/M3_conf_0_60.gjf 

0 1
N                   0.00000000    0.00000000    0.00000000 
N                   1.23580000    0.00000000    0.00000000 
C                   1.95651000    0.00000000    1.30718000 
N                  -1.13487000    0.00079000   -0.13271000 
H                   3.00964000    0.06603000    1.02531000 
H                   1.70315000    0.90947000    1.86740000 
H                   1.76611000   -0.89091000    1.91505000 


