%nprocshared=4 
%mem=4GB 
# b3lyp/6-31g(d) 

tmpdir/M3_conf_0_17.gjf 

0 1
C                   0.00000000    0.00000000    0.00000000 
C                   1.55090000    0.00000000    0.00000000 
H                   1.86035000    0.00000000    1.05276000 
H                  -0.48547000    0.46561000   -0.90250000 
H                  -0.35901000   -1.03290000    0.09582000 
H                  -0.35989000    0.53671000    0.88796000 
H                   2.08898000   -0.86203000   -0.49970000 
H                   1.91459000    0.95093000   -0.41170000 


