%nprocshared=4 
%mem=4GB 
# b3lyp/6-31g(d) 

tmpdir/M3_conf_0_57.gjf 

0 1
C                   0.00000000    0.00000000    0.00000000 
C                   1.45960000    0.00000000    0.00000000 
C                   2.53382000    0.00000000    0.55778000 
H                  -0.32759000   -0.41228000    0.99483000 
H                  -0.43262000   -0.59188000   -0.81645000 
H                  -0.37512000    1.02567000   -0.12194000 
H                   3.19770000   -0.11283000    1.37497000 


