%nprocshared=4 
%mem=4GB 
# b3lyp/6-31g(d) 

tmpdir/M3_conf_0_2.gjf 

0 1
C                   0.00000000    0.00000000    0.00000000 
H                   1.09950000    0.00000000    0.00000000 
H                  -0.37893000    0.00000000   -1.06712000 
H                  -0.37280000    0.79404000    0.70102000 
H                  -0.28857000   -0.96178000    0.44196000 


