%nprocshared=4 
%mem=4GB 
# b3lyp/6-31g(d) 

tmpdir/M3_conf_0_41.gjf 

0 1
C                   0.00000000    0.00000000    0.00000000 
C                   1.55130000    0.00000000    0.00000000 
H                   1.89400000    0.00000000    1.04294000 
H                  -0.54033000    0.51061000   -0.85419000 
H                  -0.36480000   -1.03148000    0.10168000 
H                  -0.30847000    0.50737000    0.92252000 
H                   2.04155000   -0.86104000   -0.53408000 
H                   1.92894000    0.91994000   -0.46268000 


