%nprocshared=4 
%mem=4GB 
# b3lyp/6-31g(d) 

tmpdir/M3_conf_0_36.gjf 

0 1
H                   0.00000000    0.00000000    0.00000000 
C                   1.09890000    0.00000000    0.00000000 
C                   1.56928000    0.00000000    1.38173000 
H                   1.48240000   -0.93911000   -0.48783000 
H                   1.41312000    0.88063000   -0.57430000 
N                   1.94932000   -0.39726000    2.35154000 


