%nprocshared=4 
%mem=4GB 
# b3lyp/6-31g(d) 

tmpdir/M3_conf_0_43.gjf 

0 1
C                   0.00000000    0.00000000    0.00000000 
C                   1.55500000    0.00000000    0.00000000 
H                   1.88237000    0.00000000    1.04785000 
H                  -0.35957000    0.84488000    0.61474000 
H                  -0.29631000    0.14816000   -1.00574000 
H                  -0.44426000   -0.99430000    0.42575000 
H                   2.04407000    0.85542000   -0.53848000 
H                   1.87476000   -0.95370000   -0.43724000 


