%nprocshared=4 
%mem=4GB 
# b3lyp/6-31g(d) 

tmpdir/M3_conf_0_0.gjf 

0 1
C                   0.00000000    0.00000000    0.00000000 
C                   1.55570000    0.00000000    0.00000000 
H                  -0.53580000    0.00000000   -0.98682000 
H                  -0.36769000    0.83322000    0.61475000 
H                  -0.31985000   -0.90884000    0.52472000 
H                   2.08912000    0.94390000    0.29110000 
H                   1.92518000   -0.34011000   -0.97666000 
H                   1.87450000   -0.76690000    0.71715000 


