%nprocshared=4 
%mem=4GB 
# b3lyp/6-31g(d) 

tmpdir/M3_ref_3.gjf 

0 1
C                  -0.60648200    1.61121400    0.34594700 
H                  -0.58315000    2.70805500    0.34805200 
H                  -1.54262585    1.30197135   -0.21113612 
H                   0.38881637    1.27501673   -0.05069041 
H                  -0.69478600    1.32204100    1.40230700 


