%nprocshared=4 
%mem=4GB 
# b3lyp/6-31g(d) 

tmpdir/M3_ref_55.gjf 

0 1
C                   0.16748500   -1.16448500    0.15455200 
C                  -0.99263600   -1.49660400    0.05981100 
H                   0.97085947   -0.48534818    0.27516878 
H                  -2.03636307   -1.40598940   -0.07710190 


