%nprocshared=4 
%mem=4GB 
# b3lyp/6-31g(d) 

tmpdir/M3_ref_13.gjf 

0 1
C                  -0.60648200    1.61121400    0.34594700 
C                  -1.89970200    1.18401600   -0.42362600 
C                  -2.80943300    0.09912500    0.20928300 
H                   0.38881637    1.27501673   -0.05069041 
H                  -0.69478600    1.32204100    1.40230700 
H                  -0.58315000    2.70805500    0.34805200 
H                  -1.63877100    0.88728200   -1.44823000 
H                  -2.52022500    2.08294600   -0.52774400 
H                  -2.53800615   -0.96538628   -0.03583059 
H                  -2.80456000    0.21850700    1.30042000 
H                  -3.84544300    0.26372000   -0.11570400 


