%nprocshared=4 
%mem=4GB 
# b3lyp/6-31g(d) 

tmpdir/M3_ref_56.gjf 

0 1
C                   1.27729300   -0.22630300    0.32117600 
C                   0.16748500   -1.16448500    0.15455200 
C                  -0.99263600   -1.49660400    0.05981100 
H                   0.90895302    0.76765256   -0.05753003 
H                   1.51941000   -0.13440500    1.39535300 
H                   2.22784672   -0.59522038   -0.25125675 
H                  -2.03636307   -1.40598940   -0.07710190 


