%nprocshared=4 
%mem=4GB 
# b3lyp/6-31g(d) 

tmpdir/M3_ref_60.gjf 

0 1
N                   2.46787600    0.32059500   29.52310100 
N                   2.22391800   -0.79147200   30.00377700 
C                   1.15614900   -0.81771200   31.04647900 
N                   2.78512500    1.28786200   29.00411000 
H                   1.14245600   -1.85735800   31.38092600 
H                   1.45905300   -0.19669200   31.89953500 
H                   0.17229165   -0.50936407   30.67720376 


