%chk=PDB_1XBB_ref.chk
%mem=16GB
%nprocshared=16
# 6-31g(d) geom=connectivity wb97x

Strain energy of PDB

0 1
 C                  -4.32678038     7.78125341     9.01092422 
 H                  -4.64054049     8.64408212     8.39277388 
 H                  -3.60956935     8.14597370     9.75361331 
 C                  -5.55194982     7.20184981     9.73819720 
 H                  -6.10712374     7.99980126    10.23829060 
 H                  -5.18339619     6.52555975    10.52569111 
 N                  -6.47217777     6.44637390     8.88971982 
 C                  -7.61415400     7.16603120     8.33516097 
 H                  -8.55699259     6.74226859     8.71377754 
 H                  -7.64964267     7.11420857     7.24047915 
 H                  -7.59542798     8.22629795     8.60242124 
 C                  -5.78883166     5.53816633     7.96444009 
 H                  -6.53114201     5.14661666     7.25862392 
 H                  -5.38506755     4.69329252     8.54331214 
 C                  -4.60683595     6.18814662     7.23021943 
 H                  -4.05371437     5.45666919     6.63178491 
 H                  -4.98163743     6.96472930     6.53643768 
 N                  -3.72075259     6.74514551     8.21915830 
 C                  -2.30029521     6.53313485     8.12821665 
 H                  -1.99561634     6.41441265     7.08035053 
 H                  -1.77291281     7.42217801     8.50063854 
 C                  -1.80648433     5.32151512     8.91730199 
 C                  -2.46984901     4.91509539    10.07383763 
 H                  -3.36828197     5.43988191    10.37642653 
 C                  -1.98595277     3.87119989    10.85219097 
 H                  -2.48690776     3.63423773    11.78905854 
 C                  -0.65512912     4.62959042     8.54014529 
 H                  -0.12703209     4.90509695     7.63158787 
 C                  -0.18160469     3.56748153     9.30410414 
 H                   0.70696712     3.02362255     9.00599899 
 C                  -0.83842609     3.17345227    10.47116160 
 C                  -0.24644608     2.03235184    11.27498012 
 O                   0.91355159     1.68737303    11.10908379 
 N                  -1.10130736     1.44988189    12.16350120 
 H                  -2.07593886     1.66843830    12.03558765 
 C                  -0.88145634     0.28632996    12.95552717 
 C                   0.31516038     0.07012944    13.64021681 
 H                   1.12613646     0.77384452    13.53794556 
 C                  -1.94815914    -0.59859219    13.08052434 
 H                  -2.86276578    -0.44286678    12.51264685 
 C                  -1.81859963    -1.71011445    13.91046417 
 H                  -2.65127215    -2.40105560    13.99551169 
 C                  -0.63790801    -1.97162279    14.59755833 
 C                  -0.51189822    -3.20262036    15.45393215 
 H                  -1.40516767    -3.82522234    15.37738079 
 H                  -0.36063092    -2.95908423    16.51130176 
 H                   0.33754221    -3.82028505    15.14372237 
 C                   0.44482428    -1.06885977    14.44977602 
 N                   1.60561339    -1.37926692    15.17771470 
 H                   1.50254238    -2.05011649    15.92596218 
 C                   2.86539657    -0.83330160    15.11478973 
 N                   3.15037548     0.10167837    14.20326474 
 N                   3.71370038    -1.30253392    16.04968810 
 C                   4.96057889    -0.81518188    16.01895377 
 H                   5.66549351    -1.21579907    16.73971755 
 C                   5.37169161     0.14967785    15.11739907 
 H                   6.39158655     0.50353510    15.10458679 
 C                   4.38888514     0.62538199    14.23965826 
 C                   4.66129608     1.76635318    13.33795660 
 C                   3.84134755     2.07997406    12.25596679 
 H                   2.98994650     1.45450116    12.01323319 
 C                   4.13962602     3.22443353    11.51616318 
 H                   3.52487135     3.52270432    10.67568384 
 C                   5.23182154     4.00547044    11.88830167 
 H                   5.49399259     4.89597587    11.32552287 
 N                   6.02079091     3.72138334    12.93367587 
 C                   5.71393315     2.63895777    13.64406150 
 H                   6.32803716     2.46365106    14.52163136

 1 2 1.0 3 1.0 4 1.0 18 1.0
 2
 3
 4 5 1.0 6 1.0 7 1.0
 5
 6
 7 8 1.0 12 1.0
 8 9 1.0 10 1.0 11 1.0
 9
 10
 11
 12 13 1.0 14 1.0 15 1.0
 13
 14
 15 16 1.0 17 1.0 18 1.0
 16
 17
 18 19 1.0
 19 20 1.0 21 1.0 22 1.0
 20
 21
 22 23 1.0 27 2.0
 23 24 1.0 25 2.0
 24
 25 26 1.0 31 1.0
 26
 27 28 1.0 29 1.0
 28
 29 30 1.0 31 2.0
 30
 31 32 1.0
 32 33 2.0 34 1.0
 33
 34 35 1.0 36 1.0
 35
 36 37 2.0 39 1.0
 37 38 1.0 48 1.0
 38
 39 40 1.0 41 2.0
 40
 41 42 1.0 43 1.0
 42
 43 44 1.0 48 2.0
 44 45 1.0 46 1.0 47 1.0
 45
 46
 47
 48 49 1.0
 49 50 1.0 51 1.0
 50
 51 52 2.0 53 1.0
 52 58 1.0
 53 54 2.0
 54 55 1.0 56 1.0
 55
 56 57 1.0 58 2.0
 57
 58 59 1.0
 59 60 2.0 67 1.0
 60 61 1.0 62 1.0
 61
 62 63 1.0 64 2.0
 63
 64 65 1.0 66 1.0
 65
 66 67 2.0
 67 68 1.0
 68

