%nprocshared=4 
%mem=4GB 
#m062x/6-31g(d)    scf=tight

tmpdir/M1_conf_0_3.gjf 

0 1
C                  -1.00543000    1.79517600   -0.05013500 
H                  -0.44170000    2.46973000    0.60120700 
H                  -1.69957400    2.41219400   -0.63294800 
H                  -1.55793092    1.01033590    0.51019185 
H                  -0.35925316    1.22726427   -0.74255150 


