%nprocshared=4 
%mem=4GB 
#m062x/6-31g(d)    scf=tight

tmpdir/M1_conf_0_5.gjf 

0 1
C                   1.03820900   -0.86459400    1.25653300 
H                   0.57749400   -1.37555000    2.09442900 
C                   1.17634900   -1.38768700   -0.02347200 
H                   0.99751600   -2.42258700   -0.29235000 
H                   1.32081627    0.11199119    1.24201981 
H                   1.82747143   -0.71478791   -0.57892059 


