%nprocshared=4 
%mem=4GB 
#m062x/6-31g(d)    scf=tight

tmpdir/M1_conf_0_1.gjf 

0 1
C                  -0.11278000    1.01064400   -1.00666200 
C                  -0.54390800   -0.31238100   -1.09456600 
H                   0.33758500    1.52404300   -1.85127100 
H                  -0.40402200   -0.97192500   -1.94283100 
H                  -0.75895684    1.57855573   -0.31424550 
H                  -1.33629244   -0.48654942   -0.39699977 


