%nprocshared=4 
%mem=4GB 
#m062x/6-31g(d)    scf=tight

tmpdir/M1_conf_0_6.gjf 

0 1
C                   1.42861200    0.48449300    1.23648400 
H                   1.34000900    1.17476100    2.06862200 
C                   1.78672900    0.83545500   -0.06856500 
H                   2.27300200    1.77215800   -0.32322500 
H                   1.14600473   -0.49209219    1.25099719 
H                   1.99600589   -0.10094728   -0.59137139 


