%nprocshared=4 
%mem=4GB 
#m062x/6-31g(d)    scf=tight

tmpdir/M1_conf_0_4.gjf 

0 1
C                  -1.76867300    0.71097200    0.72391900 
H                  -2.82133100    0.93962700    0.90416700 
H                  -1.30318900    0.51055600    1.69648000 
H                  -1.21617208    1.49581210    0.16359215 
H                  -1.67446720   -0.20398733    0.10510940 


