%nprocshared=4 
%mem=4GB 
#m062x/6-31g(d)    scf=tight

tmpdir/M1_ref_3.gjf 

0 1
C                  -1.47461900   -0.61822800   -0.00003600 
H                  -2.05496600   -0.92464400    0.87728400 
H                  -2.05484100   -0.92469800   -0.87741900 
H                  -0.44471237   -1.03811445    0.00005087 
H                  -1.32078599    0.46433989   -0.00005916 


