%nprocshared=4 
%mem=4GB 
#m062x/6-31g(d)    scf=tight

tmpdir/M1_ref_5.gjf 

0 1
C                   5.73518200    5.98827400    4.99993500 
H                   6.34891100    6.88190900    4.99987400 
C                   6.17730700    4.71924100    5.00006000 
H                   7.20929100    4.39039000    5.00012300 
H                   4.67082997    5.98829210    4.99987347 
H                   5.32505574    4.04324875    5.00010922 


