%nprocshared=4 
%mem=4GB 
#m062x/6-31g(d)    scf=tight

tmpdir/M2_conf_0_50.gjf 

0 1
C                   0.00000000    0.00000000    0.00000000 
C                   1.50950000    0.00000000    0.00000000 
O                  -0.38984000    0.00000000   -1.11883000 
H                  -0.60409000   -0.00000000    0.89899000 
H                   1.75716000    0.00000000   -1.05923000 
H                   1.91916000   -0.87904000    0.51655000 
H                   1.91916000    0.87904000    0.51655000 


