%nprocshared=4 
%mem=4GB 
#m062x/6-31g(d)    scf=tight

tmpdir/M2_conf_0_53.gjf 

0 1
H                   0.00000000    0.00000000    0.00000000 
C                   1.08310000    0.00000000    0.00000000 
C                   1.89668000    0.00000000    1.26340000 
O                   1.79415000   -0.00000000   -0.94771000 
H                   2.92133000   -0.00000000    0.89814000 
H                   1.68418000   -0.87904000    1.88750000 
H                   1.68418000    0.87904000    1.88750000 


