%nprocshared=4 
%mem=4GB 
#m062x/6-31g(d)    scf=tight

tmpdir/M2_conf_0_51.gjf 

0 1
C                   0.00000000    0.00000000    0.00000000 
C                   1.34380000    0.00000000    0.00000000 
H                   1.93987000    0.00000000    0.90433000 
H                  -0.35022000    0.00000000   -1.00513000 
H                  -0.64195000    0.00000000    0.87359000 
H                   1.70172000   -0.00000000   -1.02723000 


