%nprocshared=4 
%mem=4GB 
#m062x/6-31g(d)    scf=tight

tmpdir/M2_conf_0_10.gjf 

0 1
H                   0.00000000    0.00000000    0.00000000 
C                   1.08410000    0.00000000    0.00000000 
C                   1.85986000    0.00000000    1.09727000 
H                   1.68668000   -0.00000000   -0.87741000 
H                   1.52768000    0.00000000    2.12817000 
H                   2.90526000   -0.00000000    0.79652000 


