%nprocshared=4 
%mem=4GB 
#m062x/6-31g(d)    scf=tight

tmpdir/M2_conf_0_35.gjf 

0 1
C                   0.00000000    0.00000000    0.00000000 
H                   1.08360000    0.00000000    0.00000000 
O                  -0.71557000    0.00000000   -0.93525000 
H                  -0.57981000   -0.00000000    0.90523000 


