%nprocshared=4 
%mem=4GB 
#m062x/6-31g(d)    scf=tight

tmpdir/M2_conf_0_11.gjf 

0 1
C                   0.00000000    0.00000000    0.00000000 
C                   1.53530000    0.00000000    0.00000000 
H                  -0.43000000    0.00000000   -1.00519000 
H                  -0.43000000    0.85105000    0.53490000 
H                  -0.29447000   -0.93640000    0.51735000 
H                   1.80148000   -0.92817000    0.51301000 
H                   1.95686000    0.86453000    0.52461000 
H                   1.95686000    0.01571000   -1.01113000 


