%nprocshared=4 
%mem=4GB 
#m062x/6-31g(d)    scf=tight

tmpdir/M2_conf_0_31.gjf 

0 1
C                   0.00000000    0.00000000    0.00000000 
H                   1.08620000    0.00000000    0.00000000 
H                  -0.57325000    0.00000000   -0.93108000 
O                  -0.67544000   -0.00000000    0.96463000 


