%nprocshared=4 
%mem=4GB 
#m062x/6-31g(d)    scf=tight

tmpdir/M2_conf_0_55.gjf 

0 1
C                   0.00000000    0.00000000    0.00000000 
H                   1.09060000    0.00000000    0.00000000 
H                  -0.40556000    0.00000000   -1.00937000 
H                  -0.40556000    0.91331000    0.42977000 
H                  -0.30766000   -0.89064000    0.56522000 


