%nprocshared=4 
%mem=4GB 
#m062x/6-31g(d)    scf=tight

tmpdir/M2_conf_0_29.gjf 

0 1
H                   0.00000000    0.00000000    0.00000000 
C                   1.09560000    0.00000000    0.00000000 
H                   1.41958000    0.00000000    1.04660000 
H                   1.52355000    0.85227000   -0.57227000 
H                   1.47977000   -0.88547000   -0.51370000 


