%nprocshared=4 
%mem=4GB 
#m062x/6-31g(d)    scf=tight

tmpdir/M2_conf_0_33.gjf 

0 1
C                   0.00000000    0.00000000    0.00000000 
C                   1.51050000    0.00000000    0.00000000 
H                   2.03949000    0.00000000    0.94846000 
H                  -0.27076000    0.00000000   -1.07874000 
H                  -0.38494000   -0.87730000    0.53152000 
H                  -0.38494000    0.87739000    0.53137000 
O                   1.97780000   -0.00000000   -1.08091000 


