%nprocshared=4 
%mem=4GB 
#m062x/6-31g(d)    scf=tight

tmpdir/M2_conf_0_60.gjf 

0 1
C                   0.00000000    0.00000000    0.00000000 
C                   1.50270000    0.00000000    0.00000000 
H                   1.98524000    0.00000000    0.98717000 
O                  -0.38984000    0.96461000   -0.56684000 
H                  -0.60409000   -0.77507000    0.45546000 
H                   1.75036000    0.91323000   -0.53664000 
H                   1.91236000   -0.89062000   -0.49632000 


