%nprocshared=4 
%mem=4GB 
#m062x/6-31g(d)    scf=tight

tmpdir/M2_conf_0_17.gjf 

0 1
C                   0.00000000    0.00000000    0.00000000 
C                   1.53640000    0.00000000    0.00000000 
C                   1.93366000    0.00000000    1.48053000 
H                  -0.26618000   -0.00019000    1.06050000 
H                  -0.42156000   -0.87735000   -0.50287000 
H                  -0.42156000    0.87744000   -0.50272000 
H                   1.96640000    0.87984000   -0.48610000 
H                   1.96640000   -0.87984000   -0.48610000 
H                   1.02420000   -0.00018000    2.05369000 
O                   3.06373000   -0.00000000    1.90822000 


