%nprocshared=4 
%mem=4GB 
#m062x/6-31g(d)    scf=tight

tmpdir/M2_conf_0_41.gjf 

0 1
C                   0.00000000    0.00000000    0.00000000 
C                   1.53290000    0.00000000    0.00000000 
C                   1.96732000    0.00000000    1.42004000 
H                  -0.29516000    0.00019000    1.07232000 
H                  -0.35468000    0.87969000   -0.54373000 
H                  -0.35450000   -0.87994000   -0.54346000 
O                   2.23885000   -0.00017000   -0.98062000 
O                   1.02611000    0.00019000    2.12775000 
H                   3.01037000   -0.00016000    1.71185000 


