%nprocshared=4 
%mem=4GB 
#m062x/6-31g(d)    scf=tight

tmpdir/M2_conf_0_34.gjf 

0 1
C                   0.00000000    0.00000000    0.00000000 
C                   1.33570000    0.00000000    0.00000000 
H                   1.90878000    0.00000000    0.92248000 
H                  -0.65815000    0.00000000    0.86020000 
H                  -0.36644000    0.00000000   -1.01062000 
H                   1.76959000   -0.00000000   -1.00362000 


