%nprocshared=4 
%mem=4GB 
#m062x/6-31g(d)    scf=tight

tmpdir/M2_conf_0_48.gjf 

0 1
H                   0.00000000    0.00000000    0.00000000 
C                   1.08310000    0.00000000    0.00000000 
C                   1.92774000    0.00000000    1.24285000 
O                   1.79415000   -0.00000000   -0.94771000 
H                   2.94302000   -0.00000000    0.85231000 
H                   1.73077000    0.87904000    1.87202000 
H                   1.73077000   -0.87904000    1.87202000 


