%nprocshared=4 
%mem=4GB 
#m062x/6-31g(d)    scf=tight

tmpdir/M2_ref_24.gjf 

0 1
C                  -0.05187200   -1.19827300    0.00008400 
C                  -1.47461900   -0.61822800   -0.00003600 
C                  -1.26210900    0.87726700   -0.00006800 
H                   0.16275500   -1.81088900   -0.87961300 
H                   0.16268100   -1.81060400    0.88000200 
H                   0.62477610   -0.31882752   -0.00000938 
H                  -2.05496600   -0.92464400    0.87728400 
H                  -2.05484100   -0.92469800   -0.87741900 
O                  -0.12625081    1.18791939   -0.00003450 
H                  -2.09760100    1.57109800   -0.00009900 


