%nprocshared=4 
%mem=4GB 
#m062x/6-31g(d)    scf=tight

tmpdir/M2_ref_41.gjf 

0 1
C                  -0.05187200   -1.19827300    0.00008400 
C                   0.88287200    0.01662200   -0.00004500 
C                   0.02627300    1.22963400   -0.00003000 
H                  -1.08177863   -0.77838655   -0.00000287 
H                   0.16275500   -1.81088900   -0.87961300 
H                   0.16268100   -1.81060400    0.88000200 
O                   2.09055500   -0.02192100    0.00005300 
O                  -1.10958519    0.91898161   -0.00006350 
H                   0.43426800    2.23297000   -0.00001000 


