%nprocshared=4 
%mem=4GB 
#m062x/6-31g(d)    scf=tight

tmpdir/M2_ref_4.gjf 

0 1
C                   4.26485100    5.98829900    4.99985000 
C                   5.73518200    5.98827400    4.99993500 
C                   6.17730700    4.71924100    5.00006000 
H                   3.65116200    6.88196100    4.99973000 
O                   3.87502950    4.86951595    4.99998312 
H                   6.34891100    6.88190900    4.99987400 
H                   7.20929100    4.39039000    5.00012300 
H                   5.32505574    4.04324875    5.00010922 


