%nprocshared=4 
%mem=4GB 
#m062x/6-31g(d)    scf=tight

tmpdir/M2_ref_1.gjf 

0 1
C                   5.73518200    5.98827400    4.99993500 
H                   6.34891100    6.88190900    4.99987400 
H                   4.67082997    5.98829210    4.99987347 
O                   6.12496647    4.86947420    5.00004520 


