%nprocshared=4 
%mem=4GB 
#m062x/6-31g(d)    scf=tight

tmpdir/M2_ref_44.gjf 

0 1
C                   6.17730700    4.71924100    5.00006000 
H                   7.20929100    4.39039000    5.00012300 
O                   5.78752253    5.83804080    4.99994980 
H                   5.32505574    4.04324875    5.00010922 


