%nprocshared=4 
%mem=4GB 
#m062x/6-31g(d)    scf=tight

tmpdir/M2_ref_13.gjf 

0 1
C                  -0.05187200   -1.19827300    0.00008400 
H                   0.16268100   -1.81060400    0.88000200 
H                  -1.08177863   -0.77838655   -0.00000287 
H                   0.16275500   -1.81088900   -0.87961300 
H                   0.62477610   -0.31882752   -0.00000938 


