%nprocshared=4 
%mem=4GB 
#m062x/6-31g(d)    scf=tight

tmpdir/M2_ref_55.gjf 

0 1
C                   4.99997900    3.78540300    5.00012800 
H                   4.99993800    3.12623600    5.87928200 
H                   5.85223026    4.46139525    5.00007878 
H                   4.14775163    4.46142711    5.00003607 
H                   4.99998600    3.12602600    4.12113300 


