%nprocshared=4 
%mem=4GB 
#m062x/6-31g(d)    scf=tight

tmpdir/M2_ref_53.gjf 

0 1
H                   2.79069100    4.39046600    5.00001100 
C                   3.82268400    4.71928500    5.00000100 
C                   4.99997900    3.78540300    5.00012800 
O                   4.21250550    5.83806805    4.99986788 
H                   5.85223026    4.46139525    5.00007878 
H                   4.99998600    3.12602600    4.12113300 
H                   4.99993800    3.12623600    5.87928200 


