%nprocshared=4 
%mem=4GB 
#m062x/6-31g(d)    scf=tight

tmpdir/M2_ref_47.gjf 

0 1
C                   5.73518200    5.98827400    4.99993500 
C                   6.17730700    4.71924100    5.00006000 
C                   4.99997900    3.78540300    5.00012800 
H                   4.67082997    5.98829210    4.99987347 
H                   6.34891100    6.88190900    4.99987400 
H                   7.20929100    4.39039000    5.00012300 
H                   4.14775163    4.46142711    5.00003607 
H                   4.99998600    3.12602600    4.12113300 
H                   4.99993800    3.12623600    5.87928200 


