%nprocshared=2 
%mem=2GB 
# b3lyp/6-31g(d) 

tmpdir/M2_conf_0_6.gjf 

0 1
C                   0.00000000    0.00000000    0.00000000 
H                   1.09740000    0.00000000    0.00000000 
H                  -0.34927000    0.00000000   -1.00017000 
H                  -0.30301000    0.93604000    0.49039000 
H                  -0.37468000   -0.86866000    0.59278000 


