%nprocshared=2 
%mem=2GB 
# b3lyp/6-31g(d) 

tmpdir/M2_conf_0_17.gjf 

0 1
O                   0.00000000    0.00000000    0.00000000 
N                   1.44920000    0.00000000    0.00000000 
H                   1.80252000    0.00000000    0.95824000 
H                  -0.20529000   -0.78945000   -0.52471000 
H                   1.75506000    0.90045000   -0.38724000 


