%nprocshared=2 
%mem=2GB 
# b3lyp/6-31g(d) 

tmpdir/M2_conf_0_27.gjf 

0 1
N                   0.00000000    0.00000000    0.00000000 
C                   1.46650000    0.00000000    0.00000000 
C                   1.84645000    0.00000000    1.47980000 
H                  -0.34685000   -1.07462000    0.28413000 
H                  -0.31017000    0.08329000   -0.96949000 
H                   1.76727000    0.91745000   -0.52543000 
H                   1.87157000   -0.85710000   -0.56344000 
H                   2.95280000    0.00433000    1.62919000 
H                   1.40254000    0.87503000    1.96836000 
H                   1.42042000   -0.88889000    1.95713000 


