%nprocshared=2 
%mem=2GB 
# b3lyp/6-31g(d) 

tmpdir/M2_conf_0_30.gjf 

0 1
H                   0.00000000    0.00000000    0.00000000 
C                   1.10280000    0.00000000    0.00000000 
C                   1.68771000    0.00000000    1.41140000 
H                   1.52620000    0.88914000   -0.59906000 
H                   1.43681000   -0.90454000   -0.52772000 
H                   1.31516000   -0.85840000    2.02025000 
H                   2.78157000   -0.03501000    1.35082000 
H                   1.42029000    0.93880000    1.90800000 


