%nprocshared=2 
%mem=2GB 
# b3lyp/6-31g(d) 

tmpdir/M2_conf_0_4.gjf 

0 1
C                   0.00000000    0.00000000    0.00000000 
C                   1.20760000    0.00000000    0.00000000 
H                   2.00012000    0.00000000    0.71308000 
H                  -1.05931000    0.00469000   -0.01266000 


