%nprocshared=2 
%mem=2GB 
# b3lyp/6-31g(d) 

tmpdir/M2_conf_0_35.gjf 

0 1
C                   0.00000000    0.00000000    0.00000000 
C                   1.54220000    0.00000000    0.00000000 
H                   1.94697000    0.00000000    1.01766000 
H                  -0.41394000   -0.83325000    0.50663000 
H                  -0.36623000    0.92631000    0.46507000 
H                  -0.36904000    0.01446000   -1.03572000 
H                   1.95813000    0.87899000   -0.52690000 
H                   1.91331000   -0.91616000   -0.47367000 


