%nprocshared=2 
%mem=2GB 
# b3lyp/6-31g(d) 

tmpdir/M2_ref_38.gjf 

0 1
H                  -0.19480800   -0.16538000   -1.31100700 
C                  -0.09370800    0.00656300   -0.23321700 
H                   0.00093000   -0.97452200    0.24420500 
H                  -1.00631253    0.51917636    0.15494370 
H                   0.82527469    0.59085700   -0.04026519 


