%nprocshared=2 
%mem=2GB 
# b3lyp/6-31g(d) 

tmpdir/M2_ref_1.gjf 

0 1
C                  -2.58197800   -0.04579800    0.06552100 
C                  -1.35441000    0.71470400    0.30300100 
N                  -3.50723160   -0.63397435   -0.12109425 
H                  -1.24209000    0.89543900    1.38154600 
H                  -1.44664300    1.70669300   -0.16248800 
H                  -0.44180547    0.20209064   -0.08515970 


