%nprocshared=4 
%mem=4GB 
#m062x/6-31g(d)    scf=tight

tmpdir/M2_conf_0_61.gjf 

0 1
H                   0.00000000    0.00000000    0.00000000 
C                   1.09880000    0.00000000    0.00000000 
H                   1.44582000    0.00000000    1.04256000 
H                   1.50436000   -0.85224000   -0.54085000 
H                   1.50436000    0.85224000   -0.54085000 


