%nprocshared=4 
%mem=4GB 
#m062x/6-31g(d)    scf=tight

tmpdir/M2_conf_0_0.gjf 

0 1
C                   0.00000000    0.00000000    0.00000000 
C                   1.40460000    0.00000000    0.00000000 
H                  -0.61373000    0.00000000   -0.89365000 
C                  -0.44215000   -0.00000000    1.26898000 
H                   2.01833000   -0.00000000   -0.89365000 
C                   1.84675000    0.00000000    1.26898000 


