%nprocshared=4 
%mem=4GB 
#m062x/6-31g(d)    scf=tight

tmpdir/M2_conf_0_49.gjf 

0 1
C                   0.00000000    0.00000000    0.00000000 
H                   1.08570000    0.00000000    0.00000000 
C                  -0.80647000    0.00000000   -1.07490000 
H                  -0.60672000   -0.00000000    0.90289000 


