%nprocshared=4 
%mem=4GB 
#m062x/6-31g(d)    scf=tight

tmpdir/M2_conf_0_25.gjf 

0 1
C                   0.00000000    0.00000000    0.00000000 
C                   1.53640000    0.00000000    0.00000000 
H                   1.96519000    0.00000000    1.00821000 
H                  -0.43000000    0.85935000   -0.52147000 
H                  -0.43000000   -0.01579000    1.00507000 
H                  -0.29447000   -0.92816000   -0.53199000 
H                   1.80258000   -0.92009000   -0.52736000 
H                   1.95796000    0.87257000   -0.51112000 


