%nprocshared=4 
%mem=4GB 
#m062x/6-31g(d)    scf=tight

tmpdir/M2_conf_0_13.gjf 

0 1
C                   0.00000000    0.00000000    0.00000000 
H                   1.09670000    0.00000000    0.00000000 
H                  -0.43743000    0.00000000   -1.02257000 
H                  -0.32275000    0.85104000    0.60570000 
H                  -0.35979000   -0.93641000    0.47424000 


