%nprocshared=4 
%mem=4GB 
#m062x/6-31g(d)    scf=tight

tmpdir/M2_conf_0_18.gjf 

0 1
H                   0.00000000    0.00000000    0.00000000 
C                   1.09330000    0.00000000    0.00000000 
H                   1.42243000    0.00000000    1.04258000 
H                   1.53073000    0.83311000   -0.59294000 
H                   1.45327000   -0.92930000   -0.48789000 


