%nprocshared=4 
%mem=4GB 
#m062x/6-31g(d)    scf=tight

tmpdir/M2_conf_0_21.gjf 

0 1
C                   0.00000000    0.00000000    0.00000000 
C                   1.52550000    0.00000000    0.00000000 
H                  -0.27076000    0.00000000   -1.07874000 
H                  -0.38494000   -0.87739000    0.53137000 
H                  -0.38494000    0.87739000    0.53137000 
C                   2.05554000    0.00000000   -1.22603000 
H                   2.09487000    0.00000000    0.92478000 


