%nprocshared=4 
%mem=4GB 
#m062x/6-31g(d)    scf=tight

tmpdir/M2_conf_0_40.gjf 

0 1
C                   0.00000000    0.00000000    0.00000000 
O                   1.21190000    0.00000000    0.00000000 
H                  -0.64828000    0.00000000   -0.90052000 
H                  -0.64785000   -0.00015000    0.85786000 


