%nprocshared=4 
%mem=4GB 
#m062x/6-31g(d)    scf=tight

tmpdir/M2_conf_0_32.gjf 

0 1
C                   0.00000000    0.00000000    0.00000000 
C                   1.51050000    0.00000000    0.00000000 
C                   1.97346000    0.00000000    1.25290000 
H                  -0.27076000    0.00000000    1.07874000 
H                  -0.38494000    0.87739000   -0.53137000 
H                  -0.38494000   -0.87739000   -0.53137000 
H                   2.07987000   -0.00000000   -0.92478000 
H                   3.00846000   -0.00000000    1.57210000 
H                   1.15251000    0.00000000    1.94691000 


