%nprocshared=4 
%mem=4GB 
#m062x/6-31g(d)    scf=tight

tmpdir/M2_conf_0_23.gjf 

0 1
C                   0.00000000    0.00000000    0.00000000 
H                   1.09650000    0.00000000    0.00000000 
H                  -0.42795000    0.00000000   -1.02657000 
H                  -0.38417000   -0.92009000    0.44876000 
H                  -0.30952000    0.87252000    0.58587000 


