%nprocshared=4 
%mem=4GB 
#m062x/6-31g(d)    scf=tight

tmpdir/M2_conf_0_4.gjf 

0 1
C                   0.00000000    0.00000000    0.00000000 
C                   1.47030000    0.00000000    0.00000000 
C                   1.90136000    0.00000000    1.27279000 
H                  -0.61373000    0.00000000   -0.89365000 
C                  -0.44215000    0.00000000    1.26898000 
H                   2.08403000   -0.00000000   -0.89365000 
H                   2.93045000   -0.00000000    1.61054000 
H                   1.04323000    0.00000000    1.94130000 


