%nprocshared=4 
%mem=4GB 
#m062x/6-31g(d)    scf=tight

tmpdir/M2_ref_49.gjf 

0 1
C                   3.82268400    4.71928500    5.00000100 
H                   2.79069100    4.39046600    5.00001100 
C                   4.26485100    5.98829900    4.99985000 
H                   4.67491137    4.04326089    5.00009293 


