%nprocshared=4 
%mem=4GB 
#m062x/6-31g(d)    scf=tight

tmpdir/M2_ref_17.gjf 

0 1
C                  -1.47461900   -0.61822800   -0.00003600 
C                  -0.05187200   -1.19827300    0.00008400 
C                   0.88287200    0.01662200   -0.00004500 
H                  -1.32078599    0.46433989   -0.00005916 
H                  -2.05496600   -0.92464400    0.87728400 
H                  -2.05484100   -0.92469800   -0.87741900 
H                   0.16275500   -1.81088900   -0.87961300 
H                   0.16268100   -1.81060400    0.88000200 
H                   0.26279198    0.89470440   -0.00003414 
O                   2.09055500   -0.02192100    0.00005300 


