%nprocshared=4 
%mem=4GB 
#m062x/6-31g(d)    scf=tight

tmpdir/M2_ref_0.gjf 

0 1
C                   5.73518200    5.98827400    4.99993500 
C                   4.26485100    5.98829900    4.99985000 
H                   6.34891100    6.88190900    4.99987400 
C                   6.17730700    4.71924100    5.00006000 
H                   3.65116200    6.88196100    4.99973000 
C                   3.82268400    4.71928500    5.00000100 


