%nprocshared=8 
%mem=8GB 
#p b3lyp/gen scrf=(cpcm,solvent=toluene) pop=hirshfeld 
empiricaldispersion=gd3bj

tmpdir/M1_conf_0_8.gjf 

0 1
C                   3.07231200    2.40782700   -0.53208399 
H                   3.09163900    3.15484900   -1.32840395 
C                   4.33412300    2.65823100    0.35844001 
C                   5.58857100    2.42827800   -0.49977899 
H                   5.68009500    1.38401000   -0.82341301 
H                   5.58820000    3.06774900   -1.39207697 
H                   6.48420700    2.67377500    0.08429100 
C                   4.38742900    1.73828800    1.58959997 
H                   3.56148100    1.94221600    2.28131795 
H                   4.36053900    0.68057900    1.30757201 
H                   5.31871900    1.92859100    2.13964510 
C                   4.30006800    4.12740400    0.81375200 
H                   4.26624800    4.80603400   -0.04907900 
H                   3.43444500    4.33398400    1.45309901 
H                   5.20434000    4.35727100    1.39223194 
H                   2.10916399    2.55179199    0.05847200 
H                   3.07688189    1.39353314   -0.97629807 

!   Basis set: pcseg-1
-H     0
S    3   1.00
      0.122518D+02           0.233371D-01
      0.186871D+01           0.159150D+00
      0.418208D+00           0.500000D+00
S    1   1.00
      0.106100D+00           1.0000000
P    1   1.00
      0.100000D+01           1.0000000
****
-C     0
S    5   1.00
      0.124320D+04           0.603366D-02
      0.187145D+03           0.449576D-01
      0.425126D+02           0.197901D+00
      0.117393D+02           0.500000D+00
      0.350548D+01           0.480364D+00
S    2   1.00
      0.539089D+01          -0.703980D-01
      0.493341D+00           0.500000D+00
S    1   1.00
      0.149741D+00           1.0000000
P    3   1.00
      0.918056D+01           0.431701D-01
      0.193658D+01           0.224999D+00
      0.526296D+00           0.500000D+00
P    1   1.00
      0.136319D+00           1.0000000
D    1   1.00
      0.800000D+00           1.0000000
****
-N     0
S    5   1.00
      0.172632D+04           0.593077D-02
      0.259827D+03           0.442539D-01
      0.590335D+02           0.196096D+00
      0.163509D+02           0.500000D+00
      0.491084D+01           0.482987D+00
S    2   1.00
      0.775894D+01          -0.703356D-01
      0.705573D+00           0.500000D+00
S    1   1.00
      0.209286D+00           1.0000000
P    3   1.00
      0.131844D+02           0.440747D-01
      0.281860D+01           0.230478D+00
      0.765571D+00           0.500000D+00
P    1   1.00
      0.195949D+00           1.0000000
D    1   1.00
      0.900000D+00           1.0000000
****
-O     0
S    5   1.00
      0.228864D+04           0.585468D-02
      0.344416D+03           0.437333D-01
      0.782538D+02           0.194796D+00
      0.217195D+02           0.500000D+00
      0.655907D+01           0.484614D+00
S    2   1.00
      0.104656D+02          -0.713343D-01
      0.964351D+00           0.500000D+00
S    1   1.00
      0.285127D+00           1.0000000
P    3   1.00
      0.170590D+02           0.474439D-01
      0.368999D+01           0.242689D+00
      0.992996D+00           0.500000D+00
P    1   1.00
      0.244924D+00           1.0000000
D    1   1.00
      0.100000D+01           1.0000000
****
-S     0
S    7   1.00
      0.492994D+05           0.745680D-03
      0.739584D+04           0.575893D-02
      0.168330D+04           0.294637D-01
      0.476144D+03           0.113223D+00
      0.154329D+03           0.315267D+00
      0.550288D+02           0.500000D+00
      0.205029D+02           0.299093D+00
S    3   1.00
      0.459596D+02          -0.874744D-01
      0.492740D+01           0.558303D+00
      0.191799D+01           0.500000D+00
S    1   1.00
      0.368498D+00           1.0000000
S    1   1.00
      0.129165D+00           1.0000000
P    6   1.00
      0.451662D+03           0.400554D-02
      0.106098D+03           0.315665D-01
      0.336996D+02           0.134441D+00
      0.123054D+02           0.347659D+00
      0.471412D+01           0.500000D+00
      0.178105D+01           0.287922D+00
P    2   1.00
      0.872235D+00           0.243521D+00
      0.310278D+00           0.500000D+00
P    1   1.00
      0.100194D+00           1.0000000
D    1   1.00
      0.550000D+00           1.0000000
****
-Cl     0
S    7   1.00
      0.561295D+05           0.739040D-03
      0.842032D+04           0.570820D-02
      0.191646D+04           0.292141D-01
      0.542099D+03           0.112411D+00
      0.175740D+03           0.313999D+00
      0.627191D+02           0.500000D+00
      0.234123D+02           0.302077D+00
S    3   1.00
      0.522067D+02          -0.897496D-01
      0.566022D+01           0.573007D+00
      0.224230D+01           0.500000D+00
S    1   1.00
      0.456488D+00           1.0000000
S    1   1.00
      0.159693D+00           1.0000000
P    6   1.00
      0.533333D+03           0.379695D-02
      0.125415D+03           0.300914D-01
      0.399394D+02           0.129733D+00
      0.146334D+02           0.341517D+00
      0.564837D+01           0.500000D+00
      0.215360D+01           0.289333D+00
P    2   1.00
      0.108810D+01           0.252417D+00
      0.387168D+00           0.500000D+00
P    1   1.00
      0.123929D+00           1.0000000
D    1   1.00
      0.600000D+00           1.0000000
****







