%chk=PDB_4HZZ_ref.chk
%mem=16GB
%nprocshared=16
# 6-31g(d) geom=connectivity wb97x

Strain energy of PDB

0 1
 C                  5.22017500   30.71649700   37.97411200
 O                  4.62023100   29.82145000   38.61067800
 O                  4.96812300   31.91592500   37.77994100
 C                  6.53080500   30.20110400   37.31476000
 C                  6.84798700   28.76088500   37.58168900
 C                  8.00718600   28.21101600   36.75394100
 N                  8.47663200   26.95205800   37.43349300
 C                  9.13883000   29.23301300   36.62413000
 N                 10.32099200   28.85905800   35.83311900
 C                  8.58256400   30.50287600   35.93175700
 C                  7.32900200   30.98657000   36.59869400
 O                  9.66122800   31.43100000   35.94875800
 C                  9.79768800   32.27464800   34.79923700
 C                  8.69478600   33.33163900   34.69747700
 C                 11.00779600   27.71650500   35.68495700
 O                 10.66992700   26.61097100   36.14557000
 C                 12.27388000   27.80505300   34.86911000
 C                 11.19648900   32.87936300   34.87472300
 C                 12.31647900   31.84321600   34.82980700
 C                  8.62070400   34.28202500   35.89084600
 H                  9.38000900   26.61519700   36.95615300
 H                  8.66667900   27.14314000   38.42023400
 H                  7.74343800   26.24082400   37.40246000
 H                 10.76191100   29.70060500   35.47647800
 H                  7.68016500   27.90277100   35.75446700
 H                  9.46581000   29.53373100   37.63045600
 H                  8.38576400   30.23445700   34.87677600
 H                  7.01408100   32.01935800   36.47356800
 H                  9.74144000   31.63216400   33.90019800
 H                  5.93539300   28.17384200   37.43344600
 H                  7.07277800   28.66401400   38.65506100
 H                  7.73099700   32.82661800   34.56492300
 H                  8.86705800   33.89625800   33.77135700
 H                 12.17347500   27.14941100   33.99997000
 H                 13.10037100   27.42271500   35.47367700
 H                 12.50771100   28.81830800   34.53409200
 H                 11.27855000   33.46882600   35.79478300
 H                 11.30451700   33.57944500   34.03695400
 H                 13.29916500   32.32250700   34.78047800
 H                 12.22210100   31.19842300   33.94444500
 H                 12.30694800   31.21547800   35.72843500
 H                  7.73062800   34.91407000   35.82268100
 H                  9.49422400   34.94152300   35.93921100
 H                  8.56128400   33.72644100   36.83190000

 1 2 2.0 3 1.0 4 1.0
 2
 3
 4 5 1.0 11 2.0
 5 6 1.0 30 1.0 31 1.0
 6 7 1.0 8 1.0 25 1.0
 7 22 1.0 23 1.0 21 1.0
 8 9 1.0 10 1.0 26 1.0
 9 15 1.0 24 1.0
 10 11 1.0 12 1.0 27 1.0
 11 28 1.0
 12 13 1.0
 13 14 1.0 18 1.0 29 1.0
 14 20 1.0 32 1.0 33 1.0
 15 16 2.0 17 1.0
 16
 17 34 1.0 35 1.0 36 1.0
 18 19 1.0 37 1.0 38 1.0
 19 39 1.0 40 1.0 41 1.0
 20 42 1.0 43 1.0 44 1.0
 21
 22
 23
 24
 25
 26
 27
 28
 29
 30
 31
 32
 33
 34
 35
 36
 37
 38
 39
 40
 41
 42
 43
 44

