%chk=TS-pro.chk
%nprocshared=32
%mem=32GB
#p opt=(noeigen,maxstep=5) b3lyp/6-31g(d) em=gd3 optcyc=26

tmpdir/Subs_0_0.gjf

0 1
 C                  2.32536700   -2.38680700    0.21920700
 C                  1.57780700    1.31965600   -0.42523700
 C                  1.22259800   -0.10304500   -0.47483600
 C                  1.48862600   -1.29844200   -0.31016400
 N                 -0.08094563   -0.17696128   -1.34565711
 N                 -0.25995741   -1.42009564   -1.28062170
 N                  0.51492217   -2.20270578   -0.84927299
 C                 -1.26044260    0.69632661   -1.18083040
 H                 -0.82996869    1.69519962   -1.10166739
 H                 -1.86891610    0.66173501   -2.09408516
 C                 -2.10336600    0.37038984    0.03459060
 C                 -1.59307691    0.57886034    1.32385649
 C                 -3.38105637   -0.17832160   -0.11290988
 C                 -2.35679580    0.24703666    2.44175039
 H                 -0.59734580    0.99718472    1.43485891
 C                 -4.14733229   -0.50888813    1.00736682
 H                 -3.77971425   -0.34952336   -1.11076309
 C                 -3.63563100   -0.29675683    2.28764834
 H                 -1.95429948    0.41328967    3.43789526
 H                 -5.13964802   -0.93324862    0.87835288
 H                 -4.22840384   -0.55428657    3.16158609
 H                  3.38562762   -2.05575439    0.33687684
 H                  2.27789600   -3.27364500   -0.42314300
 H                  1.92461800   -2.69552900    1.19554500
 H                  2.34306164    1.48024142    0.37502838
 H                  2.00761500    1.61234100   -1.39928000
 H                  0.62154095    1.97436607   -0.22765319

