%chk=PDB_1XBB_ref.chk
%mem=16GB
%nprocshared=16
# 6-31g(d) geom=connectivity wb97x

Strain energy of PDB

0 1
 C                 -4.26961900    8.04416000    8.25904800
 H                 -3.98842300    8.23873700    7.20620200
 H                 -3.77996500    8.80014000    8.88436200
 C                 -5.77970900    8.17021300    8.39902500
 H                 -6.09910600    9.15516500    8.03798700
 H                 -6.04780400    8.10009400    9.47228900
 N                 -6.45102400    7.14532300    7.61677200
 C                 -7.89072100    7.27662400    7.69659500
 H                 -8.27584800    7.15840900    8.72803300
 H                 -8.36712600    6.51853500    7.06561000
 H                 -8.19355100    8.26357400    7.33047400
 C                 -6.01243900    5.82643500    8.04295000
 H                 -6.50293000    5.07231600    7.41594100
 H                 -6.29645100    5.62670800    9.09586400
 C                 -4.50317000    5.69638900    7.90467200
 H                 -4.18463700    4.71112200    8.26219800
 H                 -4.22932800    5.77522300    6.83472100
 N                 -3.83196200    6.72408600    8.69119300
 C                 -2.38771300    6.59015600    8.63575000
 H                 -2.01589000    6.56010600    7.59246400
 H                 -1.95354000    7.48965300    9.09299200
 C                 -1.87580800    5.37814200    9.38628800
 C                 -2.47812500    4.97968700   10.58063300
 H                 -3.34291200    5.53223700   10.93853000
 C                 -1.98380100    3.89481300   11.29402400
 H                 -2.45010400    3.62849400   12.24066100
 C                 -0.76387700    4.67246100    8.92584400
 H                 -0.28813700    4.96981900    7.99315000
 C                 -0.25734100    3.59727300    9.64421000
 H                  0.61549900    3.05145900    9.29743100
 C                 -0.87166400    3.18958200   10.82761000
 C                 -0.26800100    2.01851300   11.55020300
 O                  0.91103200    1.73044000   11.41042700
 N                 -1.13954400    1.31644000   12.33992700
 H                 -2.11733900    1.53477400   12.22002400
 C                 -0.88003800    0.16142000   13.11386500
 C                  0.39309500   -0.13856500   13.59764500
 H                  1.23073400    0.50003200   13.37036600
 C                 -1.96331300   -0.65879100   13.42037000
 H                 -2.95635600   -0.42654400   13.04124300
 C                 -1.76034500   -1.78362300   14.20776100
 H                 -2.60630700   -2.42488700   14.44604800
 C                 -0.50593200   -2.12138800   14.70000800
 C                 -0.32443200   -3.35519000   15.54789100
 H                 -1.27948400   -3.86960500   15.68462200
 H                  0.06138900   -3.11552700   16.54759700
 H                  0.36702600   -4.07412800   15.08831500
 C                  0.58085100   -1.27786900   14.38414800
 N                  1.82945300   -1.65095800   14.90158400
 H                  1.85535000   -2.50957700   15.43048300
 C                  3.07471600   -1.07368000   14.84765900
 N                  3.26303200    0.07820800   14.20875900
 N                  4.01332800   -1.78954000   15.49762000
 C                  5.23707900   -1.28224100   15.46829400
 H                  6.00504800   -1.85936600   15.98209700
 C                  5.55768600   -0.09244400   14.82460900
 H                  6.57685600    0.27434900   14.79763300
 C                  4.50744700    0.57550600   14.19911300
 C                  4.69497800    1.86036600   13.47925300
 C                  3.78847300    2.25712900   12.49560900
 H                  2.93967000    1.63118600   12.24037500
 C                  3.98992200    3.46811100   11.85054700
 H                  3.29588400    3.80352400   11.08542800
 C                  5.09066400    4.23911200   12.20995300
 H                  5.28206000    5.19319200   11.72052500
 N                  5.96520700    3.88438100   13.15447300
 C                  5.75709100    2.72060800   13.76776700
 H                  6.47024600    2.47149700   14.55323900

 1 2 1.0 3 1.0 4 1.0 18 1.0
 2
 3
 4 5 1.0 6 1.0 7 1.0
 5
 6
 7 8 1.0 12 1.0
 8 9 1.0 10 1.0 11 1.0
 9
 10
 11
 12 13 1.0 14 1.0 15 1.0
 13
 14
 15 16 1.0 17 1.0 18 1.0
 16
 17
 18 19 1.0
 19 20 1.0 21 1.0 22 1.0
 20
 21
 22 23 1.0 27 2.0
 23 24 1.0 25 2.0
 24
 25 26 1.0 31 1.0
 26
 27 28 1.0 29 1.0
 28
 29 30 1.0 31 2.0
 30
 31 32 1.0
 32 33 2.0 34 1.0
 33
 34 35 1.0 36 1.0
 35
 36 37 2.0 39 1.0
 37 38 1.0 48 1.0
 38
 39 40 1.0 41 2.0
 40
 41 42 1.0 43 1.0
 42
 43 44 1.0 48 2.0
 44 45 1.0 46 1.0 47 1.0
 45
 46
 47
 48 49 1.0
 49 50 1.0 51 1.0
 50
 51 52 2.0 53 1.0
 52 58 1.0
 53 54 2.0
 54 55 1.0 56 1.0
 55
 56 57 1.0 58 2.0
 57
 58 59 1.0
 59 60 2.0 67 1.0
 60 61 1.0 62 1.0
 61
 62 63 1.0 64 2.0
 63
 64 65 1.0 66 1.0
 65
 66 67 2.0
 67 68 1.0
 68

