%nprocshared=2 
%mem=2GB 
# 6-31+g(d) scrf=(solvent=water,pcm) 
int=ultrafine m062x scf=tight

tmpdir/M1_conf_79_1.gjf 

0 1
C                  -0.00390034    0.00000326   -0.00117300 
H                  -0.10139394    0.93079764   -0.53402867 
H                  -0.10236107   -0.00394720    1.07120489 
H                  -0.10140341   -0.92683252   -0.54088364 
H                   1.38762260   -0.00000023   -0.00014515 


