%nprocshared=2 
%mem=2GB 
# 6-31+g(d) scrf=(solvent=water,pcm) 
int=ultrafine m062x scf=tight

tmpdir/M1_conf_92_1.gjf 

0 1
C                  -0.08499996    0.00000391   -0.00116968 
H                  -0.10072559    0.93435954   -0.53598240 
H                  -0.10163286   -0.00393270    1.07536740 
H                  -0.10072956   -0.93040182   -0.54282361 
H                   1.36632217   -0.00000051   -0.00013896 


