%nprocshared=2 
%mem=2GB 
# 6-31+g(d) scrf=(solvent=water,pcm) 
int=ultrafine m062x scf=tight

tmpdir/M1_conf_98_1.gjf 

0 1
C                  -0.12240891    0.00000417   -0.00116435 
H                  -0.10003268    0.93440769   -0.53597022 
H                  -0.10091149   -0.00392480    1.07543673 
H                  -0.10003639   -0.93045738   -0.54279926 
H                   1.35638066   -0.00000052   -0.00013659 


