%nprocshared=2 
%mem=2GB 
# 6-31+g(d) scrf=(solvent=water,pcm) 
int=ultrafine m062x scf=tight

tmpdir/M1_conf_91_1.gjf 

0 1
C                  -0.07876217    0.00000386   -0.00117028 
H                  -0.10082978    0.93425265   -0.53592736 
H                  -0.10174203   -0.00393400    1.07523934 
H                  -0.10083402   -0.93029387   -0.54277069 
H                   1.36797180   -0.00000050   -0.00013938 


