%nprocshared=2 
%mem=2GB 
# 6-31+g(d) scrf=(solvent=water,pcm) 
int=ultrafine m062x scf=tight

tmpdir/M1_conf_56_1.gjf 

0 1
C                   0.13888909    0.00000166   -0.00110344 
H                  -0.08881888    0.91572243   -0.52534899 
H                  -0.08944775   -0.00387564    1.05386162 
H                  -0.08882899   -0.91184462   -0.53205749 
H                   1.42414196   -0.00000145   -0.00010850 


