%nprocshared=2 
%mem=2GB 
# 6-31+g(d) scrf=(solvent=water,pcm) 
int=ultrafine m062x scf=tight

tmpdir/M1_conf_64_1.gjf 

0 1
C                   0.08946109    0.00000259   -0.00113310 
H                  -0.09662547    0.92171960   -0.52887840 
H                  -0.09747967   -0.00389364    1.06077745 
H                  -0.09663425   -0.91781639   -0.53562838 
H                   1.41162442   -0.00000101   -0.00011673 


