%nprocshared=2 
%mem=2GB 
# 6-31+g(d) scrf=(solvent=water,pcm) 
int=ultrafine m062x scf=tight

tmpdir/M1_conf_116_1.gjf 

0 1
C                  -0.24045634    0.00000508   -0.00113279 
H                  -0.10033950    0.92819779   -0.53230144 
H                  -0.10105204   -0.00388583    1.06832458 
H                  -0.10034955   -0.92429511   -0.53904739 
H                   1.32458161   -0.00000031   -0.00013079 


