%nprocshared=2 
%mem=2GB 
# 6-31+g(d) scrf=(solvent=water,pcm) 
int=ultrafine m062x scf=tight

tmpdir/M1_conf_119_1.gjf 

0 1
C                  -0.25897650    0.00000524   -0.00112948 
H                  -0.10143511    0.92648802   -0.53130447 
H                  -0.10213908   -0.00387768    1.06636556 
H                  -0.10144845   -0.92259539   -0.53803349 
H                   1.31952557   -0.00000027   -0.00013052 


