%nprocshared=2 
%mem=2GB 
# 6-31+g(d) scrf=(solvent=water,pcm) 
int=ultrafine m062x scf=tight

tmpdir/M1_conf_78_1.gjf 

0 1
C                   0.00233542    0.00000325   -0.00116909 
H                  -0.10133785    0.93033144   -0.53377414 
H                  -0.10231227   -0.00393902    1.07067519 
H                  -0.10134790   -0.92637531   -0.54061429 
H                   1.38924699   -0.00000035   -0.00014108 


