%nprocshared=2 
%mem=2GB 
# 6-31+g(d) scrf=(solvent=water,pcm) 
int=ultrafine m062x scf=tight

tmpdir/M1_conf_18_1.gjf 

0 1
C                   0.33892974    0.00002304   -0.00100700 
H                   0.00353375    0.89466751   -0.51380514 
H                   0.00175643   -0.00358366    1.02955755 
H                   0.00352361   -0.89099501   -0.52006590 
H                   1.50069542    0.00000582   -0.00007306 


