%nprocshared=2 
%mem=2GB 
# 6-31+g(d) scrf=(solvent=water,pcm) 
int=ultrafine m062x scf=tight

tmpdir/M1_conf_103_1.gjf 

0 1
C                  -0.15977806    0.00000445   -0.00115487 
H                  -0.09940339    0.93344565   -0.53538019 
H                  -0.10023959   -0.00391566    1.07432545 
H                  -0.09940730   -0.92950592   -0.54219018 
H                   1.34638252   -0.00000047   -0.00013408 


