%nprocshared=2 
%mem=2GB 
# 6-31+g(d) scrf=(solvent=water,pcm) 
int=ultrafine m062x scf=tight

tmpdir/M1_conf_105_1.gjf 

0 1
C                  -0.17222178    0.00000456   -0.00115118 
H                  -0.09927024    0.93290589   -0.53505951 
H                  -0.10008782   -0.00391200    1.07370579 
H                  -0.09927427   -0.92897092   -0.54186103 
H                   1.34304013   -0.00000045   -0.00013332 


