%nprocshared=2 
%mem=2GB 
# 6-31+g(d) scrf=(solvent=water,pcm) 
int=ultrafine m062x scf=tight

tmpdir/M1_conf_51_1.gjf 

0 1
C                   0.16952615    0.00000071   -0.00107450 
H                  -0.08150929    0.91185996   -0.52304781 
H                  -0.08200789   -0.00385874    1.04941230 
H                  -0.08152274   -0.90800226   -0.52972275 
H                   1.43194104   -0.00000190   -0.00010220 


