%nprocshared=2 
%mem=2GB 
# 6-31+g(d) scrf=(solvent=water,pcm) 
int=ultrafine m062x scf=tight

tmpdir/M1_conf_59_1.gjf 

0 1
C                   0.12040407    0.00000209   -0.00111640 
H                  -0.09229404    0.91801483   -0.52670628 
H                  -0.09300817   -0.00388311    1.05650539 
H                  -0.09230272   -0.91412696   -0.53343123 
H                   1.41946005   -0.00000124   -0.00011164 


