%nprocshared=2 
%mem=2GB 
# 6-31+g(d) scrf=(solvent=water,pcm) 
int=ultrafine m062x scf=tight

tmpdir/M1_conf_28_1.gjf 

0 1
C                   0.31096074    0.00000549   -0.00077834 
H                  -0.01895825    0.89576502   -0.51387854 
H                  -0.01985898   -0.00366470    1.03119271 
H                  -0.01893843   -0.89207983   -0.52024634 
H                   1.47835787   -0.00000033   -0.00003442 


