%nprocshared=2 
%mem=2GB 
# 6-31+g(d) scrf=(solvent=water,pcm) 
int=ultrafine m062x scf=tight

tmpdir/M1_conf_2_1.gjf 

0 1
C                   0.37615623    0.00004901   -0.00228513 
H                   0.03826314    0.89461935   -0.51519471 
H                   0.03533203   -0.00356462    1.02782132 
H                   0.03822058   -0.89087860   -0.52145901 
H                   1.53826384    0.00001513   -0.00043622 


