%nprocshared=2 
%mem=2GB 
# 6-31+g(d) scrf=(solvent=water,pcm) 
int=ultrafine m062x scf=tight

tmpdir/M1_conf_10_1.gjf 

0 1
C                   0.35865315    0.00003743   -0.00153596 
H                   0.02148394    0.89454527   -0.51433469 
H                   0.01945087   -0.00358582    1.02877701 
H                   0.02145991   -0.89082779   -0.52060957 
H                   1.52049823    0.00001122   -0.00020963 


