%nprocshared=2 
%mem=2GB 
# 6-31+g(d) scrf=(solvent=water,pcm) 
int=ultrafine m062x scf=tight

tmpdir/M1_conf_108_1.gjf 

0 1
C                  -0.19087080    0.00000472   -0.00114561 
H                  -0.09920632    0.93190151   -0.53446789 
H                  -0.09999299   -0.00390583    1.07255641 
H                  -0.09921103   -0.92797448   -0.54125512 
H                   1.33801884   -0.00000040   -0.00013234 


