%nprocshared=2 
%mem=2GB 
# 6-31+g(d) scrf=(solvent=water,pcm) 
int=ultrafine m062x scf=tight

tmpdir/M1_conf_77_1.gjf 

0 1
C                   0.00857027    0.00000324   -0.00116594 
H                  -0.10125683    0.92984248   -0.53350373 
H                  -0.10223671   -0.00393282    1.07011690 
H                  -0.10126731   -0.92589217   -0.54033277 
H                   1.39086902   -0.00000043   -0.00013796 


