%nprocshared=2 
%mem=2GB 
# 6-31+g(d) scrf=(solvent=water,pcm) 
int=ultrafine m062x scf=tight

tmpdir/M1_conf_72_1.gjf 

0 1
C                   0.03972561    0.00000305   -0.00115334 
H                  -0.10037517    0.92706588   -0.53194742 
H                  -0.10135505   -0.00391290    1.06693443 
H                  -0.10038644   -0.92313780   -0.53873888 
H                   1.39892984   -0.00000069   -0.00012743 


