%nprocshared=2 
%mem=2GB 
# 6-31+g(d) scrf=(solvent=water,pcm) 
int=ultrafine m062x scf=tight

tmpdir/M1_conf_16_1.gjf 

0 1
C                   0.34496851    0.00002768   -0.00113387 
H                   0.00892666    0.89459448   -0.51393532 
H                   0.00706503   -0.00357846    1.02932418 
H                   0.00891715   -0.89091670   -0.52018724 
H                   1.50665260    0.00000753   -0.00010071 


