%nprocshared=2 
%mem=2GB 
# 6-31+g(d) scrf=(solvent=water,pcm) 
int=ultrafine m062x scf=tight

tmpdir/M1_conf_117_1.gjf 

0 1
C                  -0.24663496    0.00000513   -0.00113157 
H                  -0.10065817    0.92764480   -0.53197864 
H                  -0.10136616   -0.00388313    1.06769115 
H                  -0.10066928   -0.92374529   -0.53871877 
H                   1.32289724   -0.00000030   -0.00013068 


