%nprocshared=2 
%mem=2GB 
# 6-31+g(d) scrf=(solvent=water,pcm) 
int=ultrafine m062x scf=tight

tmpdir/M1_conf_58_1.gjf 

0 1
C                   0.12657333    0.00000196   -0.00111238 
H                  -0.09121140    0.91725440   -0.52625712 
H                  -0.09189663   -0.00388078    1.05562855 
H                  -0.09122045   -0.91336971   -0.53297667 
H                   1.42102192   -0.00000131   -0.00011063 


