%nprocshared=2 
%mem=2GB 
# 6-31+g(d) scrf=(solvent=water,pcm) 
int=ultrafine m062x scf=tight

tmpdir/M1_conf_1_1.gjf 

0 1
C                   0.37810657    0.00004974   -0.00237929 
H                   0.04015741    0.89462888   -0.51530589 
H                   0.03711167   -0.00355847    1.02770543 
H                   0.04011415   -0.89089183   -0.52156140 
H                   1.54023713    0.00001534   -0.00046418 


