%nprocshared=2 
%mem=2GB 
# 6-31+g(d) scrf=(solvent=water,pcm) 
int=ultrafine m062x scf=tight

tmpdir/M1_conf_65_1.gjf 

0 1
C                   0.08325622    0.00000267   -0.00113592 
H                  -0.09729001    0.92243399   -0.52929359 
H                  -0.09816850   -0.00389572    1.06160138 
H                  -0.09729916   -0.91852813   -0.53604854 
H                   1.41005020   -0.00000097   -0.00011783 


