%nprocshared=2 
%mem=2GB 
# 6-31+g(d) scrf=(solvent=water,pcm) 
int=ultrafine m062x scf=tight

tmpdir/M1_conf_17_1.gjf 

0 1
C                   0.34297774    0.00002620   -0.00108871 
H                   0.00713918    0.89461459   -0.51388928 
H                   0.00529879   -0.00357922    1.02939985 
H                   0.00713009   -0.89093945   -0.52014263 
H                   1.50466932    0.00000697   -0.00009044 


