%nprocshared=2 
%mem=2GB 
# 6-31+g(d) scrf=(solvent=water,pcm) 
int=ultrafine m062x scf=tight

tmpdir/M1_conf_34_1.gjf 

0 1
C                   0.28037528    0.00000125   -0.00085446 
H                  -0.03771554    0.89849240   -0.51521339 
H                  -0.03804818   -0.00373571    1.03426723 
H                  -0.03769407   -0.89475694   -0.52168597 
H                   1.46408927   -0.00000219   -0.00005627 


