%nprocshared=2 
%mem=2GB 
# 6-31+g(d) scrf=(solvent=water,pcm) 
int=ultrafine m062x scf=tight

tmpdir/M1_conf_94_1.gjf 

0 1
C                  -0.09747321    0.00000400   -0.00116832 
H                  -0.10050418    0.93448866   -0.53604325 
H                  -0.10140198   -0.00393010    1.07552457 
H                  -0.10050783   -0.93053306   -0.54288129 
H                   1.36301624   -0.00000052   -0.00013818 


