%nprocshared=2 
%mem=2GB 
# 6-31+g(d) scrf=(solvent=water,pcm) 
int=ultrafine m062x scf=tight

tmpdir/M1_conf_15_1.gjf 

0 1
C                   0.34694425    0.00002914   -0.00118207 
H                   0.01070970    0.89457755   -0.51398358 
H                   0.00883132   -0.00357880    1.02924957 
H                   0.01069902   -0.89089606   -0.52023576 
H                   1.50863392    0.00000808   -0.00011222 


