%nprocshared=2 
%mem=2GB 
# 6-31+g(d) scrf=(solvent=water,pcm) 
int=ultrafine m062x scf=tight

tmpdir/M1_conf_45_1.gjf 

0 1
C                   0.21190127   -0.00000045   -0.00101532 
H                  -0.06817915    0.90650363   -0.51985332 
H                  -0.06851031   -0.00382355    1.04327860 
H                  -0.06818994   -0.90268455   -0.52646551 
H                   1.44303112   -0.00000257   -0.00009025 


