%nprocshared=2 
%mem=2GB 
# 6-31+g(d) scrf=(solvent=water,pcm) 
int=ultrafine m062x scf=tight

tmpdir/M1_conf_48_1.gjf 

0 1
C                   0.18778008    0.00000014   -0.00105177 
H                  -0.07623419    0.90954481   -0.52166576 
H                  -0.07665986   -0.00384535    1.04675371 
H                  -0.07624816   -0.90570245   -0.52831599 
H                   1.43664850   -0.00000221   -0.00009750 


