%nprocshared=2 
%mem=2GB 
# 6-31+g(d) scrf=(solvent=water,pcm) 
int=ultrafine m062x scf=tight

tmpdir/M1_conf_112_1.gjf 

0 1
C                  -0.21569495    0.00000490   -0.00113865 
H                  -0.09948795    0.93022137   -0.53348362 
H                  -0.10023208   -0.00389630    1.07063814 
H                  -0.09949467   -0.92630651   -0.54025074 
H                   1.33130930   -0.00000035   -0.00013139 


