%nprocshared=2 
%mem=2GB 
# 6-31+g(d) scrf=(solvent=water,pcm) 
int=ultrafine m062x scf=tight

tmpdir/M1_conf_82_1.gjf 

0 1
C                  -0.02261075    0.00000331   -0.00118095 
H                  -0.10143236    0.93203804   -0.53470655 
H                  -0.10237863   -0.00396309    1.07262256 
H                  -0.10144008   -0.92805545   -0.54159115 
H                   1.38273502   -0.00000004   -0.00015290 


