%nprocshared=2 
%mem=2GB 
# 6-31+g(d) scrf=(solvent=water,pcm) 
int=ultrafine m062x scf=tight

tmpdir/M1_conf_121_1.gjf 

0 1
C                  -0.27129565    0.00000535   -0.00112788 
H                  -0.10240800    0.92526933   -0.53059431 
H                  -0.10311514   -0.00387217    1.06496800 
H                  -0.10242393   -0.92138357   -0.53731222 
H                   1.31615030   -0.00000026   -0.00013042 


