%nprocshared=2 
%mem=2GB 
# 6-31+g(d) scrf=(solvent=water,pcm) 
int=ultrafine m062x scf=tight

tmpdir/M1_conf_114_1.gjf 

0 1
C                  -0.22808453    0.00000499   -0.00113555 
H                  -0.09983313    0.92924927   -0.53291528 
H                  -0.10055916   -0.00389114    1.06952740 
H                  -0.09984133   -0.92534023   -0.53967182 
H                   1.32794774   -0.00000032   -0.00013105 


