%nprocshared=2 
%mem=2GB 
# 6-31+g(d) scrf=(solvent=water,pcm) 
int=ultrafine m062x scf=tight

tmpdir/M1_conf_74_1.gjf 

0 1
C                   0.02726784    0.00000314   -0.00115809 
H                  -0.10083481    0.92823907   -0.53260889 
H                  -0.10182088   -0.00391952    1.06828119 
H                  -0.10084603   -0.92430358   -0.53941306 
H                   1.39571592   -0.00000060   -0.00013103 


