%nprocshared=2 
%mem=2GB 
# 6-31+g(d) scrf=(solvent=water,pcm) 
int=ultrafine m062x scf=tight

tmpdir/M1_conf_55_1.gjf 

0 1
C                   0.14503480    0.00000148   -0.00109847 
H                  -0.08750805    0.91495248   -0.52489125 
H                  -0.08810967   -0.00387276    1.05297419 
H                  -0.08751890   -0.91107837   -0.53159340 
H                   1.42570088   -0.00000153   -0.00010738 


