%nprocshared=2 
%mem=2GB 
# 6-31+g(d) scrf=(solvent=water,pcm) 
int=ultrafine m062x scf=tight

tmpdir/M1_conf_30_1.gjf 

0 1
C                   0.29936831    0.00000316   -0.00079699 
H                  -0.02663968    0.89667150   -0.51427420 
H                  -0.02724959   -0.00369744    1.03223413 
H                  -0.02661429   -0.89296673   -0.52068800 
H                   1.47212783   -0.00000133   -0.00004148 


