%nprocshared=2 
%mem=2GB 
# 6-31+g(d) scrf=(solvent=water,pcm) 
int=ultrafine m062x scf=tight

tmpdir/M1_conf_54_1.gjf 

0 1
C                   0.15117183    0.00000130   -0.00109312 
H                  -0.08612108    0.91418041   -0.52443177 
H                  -0.08669608   -0.00386965    1.05208412 
H                  -0.08613261   -0.91031000   -0.53112772 
H                   1.42725976   -0.00000161   -0.00010619 


