%nprocshared=2 
%mem=2GB 
# 6-31+g(d) scrf=(solvent=water,pcm) 
int=ultrafine m062x scf=tight

tmpdir/M1_conf_61_1.gjf 

0 1
C                   0.10804491    0.00000232   -0.00112368 
H                  -0.09423739    0.91951875   -0.52759186 
H                  -0.09500962   -0.00388746    1.05823951 
H                  -0.09424575   -0.91562453   -0.53432713 
H                   1.41633169   -0.00000114   -0.00011364 


