%nprocshared=2 
%mem=2GB 
# 6-31+g(d) scrf=(solvent=water,pcm) 
int=ultrafine m062x scf=tight

tmpdir/M1_conf_8_1.gjf 

0 1
C                   0.36253901    0.00004038   -0.00167962 
H                   0.02514964    0.89455373   -0.51449011 
H                   0.02298037   -0.00358529    1.02859180 
H                   0.02512008   -0.89082515   -0.52077065 
H                   1.52444803    0.00001228   -0.00025281 


