%nprocshared=2 
%mem=2GB 
# 6-31+g(d) scrf=(solvent=water,pcm) 
int=ultrafine m062x scf=tight

tmpdir/M1_conf_99_1.gjf 

0 1
C                  -0.13487057    0.00000426   -0.00116159 
H                  -0.09980037    0.93419814   -0.53583687 
H                  -0.10066738   -0.00392200    1.07519436 
H                  -0.09980418   -0.93025047   -0.54266009 
H                   1.35305333   -0.00000051   -0.00013576 


