%nprocshared=2 
%mem=2GB 
# 6-31+g(d) scrf=(solvent=water,pcm) 
int=ultrafine m062x scf=tight

tmpdir/M1_conf_102_1.gjf 

0 1
C                  -0.15355345    0.00000440   -0.00115665 
H                  -0.09948959    0.93367478   -0.53551778 
H                  -0.10033431   -0.00391736    1.07458951 
H                  -0.09949345   -0.92973294   -0.54233147 
H                   1.34805197   -0.00000048   -0.00013448 


