%nprocshared=2 
%mem=2GB 
# 6-31+g(d) scrf=(solvent=water,pcm) 
int=ultrafine m062x scf=tight

tmpdir/M1_conf_31_1.gjf 

0 1
C                   0.29496704    0.00000260   -0.00080913 
H                  -0.02935321    0.89706310   -0.51446518 
H                  -0.02987800   -0.00370783    1.03267441 
H                  -0.02932787   -0.89335091   -0.52089427 
H                   1.47007574   -0.00000158   -0.00004491 


