%nprocshared=2 
%mem=2GB 
# 6-31+g(d) scrf=(solvent=water,pcm) 
int=ultrafine m062x scf=tight

tmpdir/M1_conf_24_1.gjf 

0 1
C                   0.32301319    0.00001052   -0.00081121 
H                  -0.00995792    0.89509032   -0.51368248 
H                  -0.01124750   -0.00362350    1.03033438 
H                  -0.00995540   -0.89141783   -0.51999821 
H                   1.48661380    0.00000156   -0.00003727 


