%nprocshared=2 
%mem=2GB 
# 6-31+g(d) scrf=(solvent=water,pcm) 
int=ultrafine m062x scf=tight

tmpdir/M1_conf_87_1.gjf 

0 1
C                  -0.05380589    0.00000364   -0.00117256 
H                  -0.10118772    0.93354302   -0.53554688 
H                  -0.10211960   -0.00393986    1.07439689 
H                  -0.10119365   -0.92958054   -0.54239762 
H                   1.37455037   -0.00000043   -0.00014162 


