%nprocshared=2 
%mem=2GB 
# 6-31+g(d) scrf=(solvent=water,pcm) 
int=ultrafine m062x scf=tight

tmpdir/M1_conf_25_1.gjf 

0 1
C                   0.32029856    0.00000905   -0.00079659 
H                  -0.01208675    0.89521362   -0.51370476 
H                  -0.01328128   -0.00363292    1.03050584 
H                  -0.01207904   -0.89154007   -0.52003166 
H                   1.48456515    0.00000103   -0.00003515 


