%nprocshared=2 
%mem=2GB 
# 6-31+g(d) scrf=(solvent=water,pcm) 
int=ultrafine m062x scf=tight

tmpdir/M1_conf_73_1.gjf 

0 1
C                   0.03349755    0.00000310   -0.00115570 
H                  -0.10062478    0.92766227   -0.53228450 
H                  -0.10160884   -0.00391606    1.06761971 
H                  -0.10063605   -0.92373048   -0.53908179 
H                   1.39732488   -0.00000065   -0.00012916 


