%nprocshared=2 
%mem=2GB 
# 6-31+g(d) scrf=(solvent=water,pcm) 
int=ultrafine m062x scf=tight

tmpdir/M1_conf_39_1.gjf 

0 1
C                   0.24727289   -0.00000043   -0.00094622 
H                  -0.05397597    0.90218977   -0.51730872 
H                  -0.05420589   -0.00378313    1.03839535 
H                  -0.05397221   -0.89840985   -0.52385571 
H                   1.45306786   -0.00000278   -0.00007651 


