%nprocshared=2 
%mem=2GB 
# 6-31+g(d) scrf=(solvent=water,pcm) 
int=ultrafine m062x scf=tight

tmpdir/M1_conf_43_1.gjf 

0 1
C                   0.22382989   -0.00000060   -0.00099456 
H                  -0.06371882    0.90502193   -0.51897410 
H                  -0.06400648   -0.00381099    1.04159423 
H                  -0.06372612   -0.90121555   -0.52556537 
H                   1.44629881   -0.00000270   -0.00008619 


