%nprocshared=2 
%mem=2GB 
# 6-31+g(d) scrf=(solvent=water,pcm) 
int=ultrafine m062x scf=tight

tmpdir/M1_conf_20_1.gjf 

0 1
C                   0.33474315    0.00001952   -0.00093610 
H                  -0.00014391    0.89473948   -0.51373577 
H                  -0.00182355   -0.00359118    1.02973165 
H                  -0.00015402   -0.89106804   -0.52000806 
H                   1.49670649    0.00000460   -0.00005913 


