%nprocshared=2 
%mem=2GB 
# 6-31+g(d) scrf=(solvent=water,pcm) 
int=ultrafine m062x scf=tight

tmpdir/M1_conf_122_1.gjf 

0 1
C                  -0.27744628    0.00000541   -0.00112727 
H                  -0.10297121    0.92463907   -0.53022759 
H                  -0.10368263   -0.00386940    1.06424515 
H                  -0.10298851   -0.92075650   -0.53693968 
H                   1.31446126   -0.00000025   -0.00013039 


