%nprocshared=2 
%mem=2GB 
# 6-31+g(d) scrf=(solvent=water,pcm) 
int=ultrafine m062x scf=tight

tmpdir/M1_conf_35_1.gjf 

0 1
C                   0.26976357    0.00000051   -0.00088683 
H                  -0.04328992    0.89962432   -0.51583835 
H                  -0.04355082   -0.00375245    1.03552667 
H                  -0.04327306   -0.89587350   -0.52233797 
H                   1.46027609   -0.00000248   -0.00006373 


