%nprocshared=2 
%mem=2GB 
# 6-31+g(d) scrf=(solvent=water,pcm) 
int=ultrafine m062x scf=tight

tmpdir/M1_conf_14_1.gjf 

0 1
C                   0.34890887    0.00003054   -0.00123336 
H                   0.01249192    0.89456485   -0.51403385 
H                   0.01059934   -0.00358032    1.02917548 
H                   0.01247956   -0.89087807   -0.52028810 
H                   1.51061366    0.00000862   -0.00012504 


