%nprocshared=2 
%mem=2GB 
# 6-31+g(d) scrf=(solvent=water,pcm) 
int=ultrafine m062x scf=tight

tmpdir/M1_conf_68_1.gjf 

0 1
C                   0.06461752    0.00000285   -0.00114374 
H                  -0.09892612    0.92450678   -0.53048900 
H                  -0.09986372   -0.00390235    1.06399008 
H                  -0.09893649   -0.92059192   -0.53725877 
H                   1.40530839   -0.00000086   -0.00012148 


