%nprocshared=2 
%mem=2GB 
# 6-31+g(d) scrf=(solvent=water,pcm) 
int=ultrafine m062x scf=tight

tmpdir/M1_conf_76_1.gjf 

0 1
C                   0.01480405    0.00000321   -0.00116314 
H                  -0.10114793    0.92932971   -0.53321956 
H                  -0.10213167   -0.00392774    1.06953110 
H                  -0.10115872   -0.92538522   -0.54003854 
H                   1.39248759   -0.00000050   -0.00013535 


