%nprocshared=2 
%mem=2GB 
# 6-31+g(d) scrf=(solvent=water,pcm) 
int=ultrafine m062x scf=tight

tmpdir/M1_conf_90_1.gjf 

0 1
C                  -0.07252375    0.00000381   -0.00117084 
H                  -0.10092885    0.93411718   -0.53585645 
H                  -0.10184607   -0.00393533    1.07507742 
H                  -0.10093340   -0.93015787   -0.54270137 
H                   1.36961962   -0.00000049   -0.00013983 


