%nprocshared=2 
%mem=2GB 
# 6-31+g(d) scrf=(solvent=water,pcm) 
int=ultrafine m062x scf=tight

tmpdir/M1_conf_4_1.gjf 

0 1
C                   0.37226037    0.00004708   -0.00209912 
H                   0.03448493    0.89459871   -0.51497494 
H                   0.03179016   -0.00357419    1.02805416 
H                   0.03444457   -0.89085531   -0.52125131 
H                   1.53431728    0.00001453   -0.00038040 


