%nprocshared=2 
%mem=2GB 
# 6-31+g(d) scrf=(solvent=water,pcm) 
int=ultrafine m062x scf=tight

tmpdir/M1_conf_95_1.gjf 

0 1
C                  -0.10370856    0.00000404   -0.00116751 
H                  -0.10038850    0.93451088   -0.53604960 
H                  -0.10128175   -0.00392879    1.07555262 
H                  -0.10039205   -0.93055634   -0.54288499 
H                   1.36135999   -0.00000052   -0.00013779 


