%nprocshared=2 
%mem=2GB 
# 6-31+g(d) scrf=(solvent=water,pcm) 
int=ultrafine m062x scf=tight

tmpdir/M1_conf_36_1.gjf 

0 1
C                   0.26427097    0.00000020   -0.00090257 
H                  -0.04603282    0.90023287   -0.51618157 
H                  -0.04627350   -0.00376040    1.03620455 
H                  -0.04601883   -0.89647465   -0.52269374 
H                   1.45842430   -0.00000260   -0.00006722 


