%nprocshared=2 
%mem=2GB 
# 6-31+g(d) scrf=(solvent=water,pcm) 
int=ultrafine m062x scf=tight

tmpdir/M1_conf_53_1.gjf 

0 1
C                   0.15729976    0.00000110   -0.00108735 
H                  -0.08465843    0.91340728   -0.52397101 
H                  -0.08520745   -0.00386628    1.05119351 
H                  -0.08467076   -0.90954111   -0.53066046 
H                   1.42881881   -0.00000171   -0.00010494 


