%nprocshared=2 
%mem=2GB 
# 6-31+g(d) scrf=(solvent=water,pcm) 
int=ultrafine m062x scf=tight

tmpdir/M1_conf_81_1.gjf 

0 1
C                  -0.01637360    0.00000393   -0.00119979 
H                  -0.10146271    0.93166516   -0.53448749 
H                  -0.10235071   -0.00400208    1.07215764 
H                  -0.10146171   -0.92765130   -0.54142650 
H                   1.38436648    0.00000071   -0.00017090 


