%nprocshared=2 
%mem=2GB 
# 6-31+g(d) scrf=(solvent=water,pcm) 
int=ultrafine m062x scf=tight

tmpdir/M1_conf_69_1.gjf 

0 1
C                   0.05839815    0.00000290   -0.00114620 
H                  -0.09936142    0.92517090   -0.53086948 
H                  -0.10031357   -0.00390475    1.06475422 
H                  -0.09937216   -0.92125234   -0.53764401 
H                   1.40372015   -0.00000082   -0.00012284 


