%nprocshared=2 
%mem=2GB 
# 6-31+g(d) scrf=(solvent=water,pcm) 
int=ultrafine m062x scf=tight

tmpdir/M1_conf_109_1.gjf 

0 1
C                  -0.19708176    0.00000477   -0.00114380 
H                  -0.09923204    0.93151680   -0.53424193 
H                  -0.10000781   -0.00390358    1.07211667 
H                  -0.09923712   -0.92759242   -0.54102440 
H                   1.33634302   -0.00000038   -0.00013207 


