%nprocshared=2 
%mem=2GB 
# 6-31+g(d) scrf=(solvent=water,pcm) 
int=ultrafine m062x scf=tight

tmpdir/M1_conf_49_1.gjf 

0 1
C                   0.18170830    0.00000032   -0.00105981 
H                  -0.07806567    0.91031529   -0.52212535 
H                  -0.07851537   -0.00385010    1.04763691 
H                  -0.07807969   -0.90646711   -0.52878426 
H                   1.43507439   -0.00000211   -0.00009915 


