%nprocshared=2 
%mem=2GB 
# 6-31+g(d) scrf=(solvent=water,pcm) 
int=ultrafine m062x scf=tight

tmpdir/M1_conf_0_1.gjf 

0 1
C                   0.38201349    0.00005068   -0.00256490 
H                   0.04395101    0.89464687   -0.51552417 
H                   0.04069199   -0.00354326    1.02748053 
H                   0.04390656   -0.89092093   -0.52175678 
H                   1.54418388    0.00001557   -0.00051862 


