%nprocshared=2 
%mem=2GB 
# 6-31+g(d) scrf=(solvent=water,pcm) 
int=ultrafine m062x scf=tight

tmpdir/M1_conf_88_1.gjf 

0 1
C                  -0.06004542    0.00000370   -0.00117198 
H                  -0.10110855    0.93376263   -0.53566648 
H                  -0.10203578   -0.00393819    1.07465619 
H                  -0.10111400   -0.92980067   -0.54251457 
H                   1.37290863   -0.00000046   -0.00014092 


