%nprocshared=2 
%mem=2GB 
# 6-31+g(d) scrf=(solvent=water,pcm) 
int=ultrafine m062x scf=tight

tmpdir/M1_conf_111_1.gjf 

0 1
C                  -0.20949410    0.00000486   -0.00114031 
H                  -0.09937021    0.93067593   -0.53374927 
H                  -0.10012455   -0.00389880    1.07115727 
H                  -0.09937629   -0.92675737   -0.54052168 
H                   1.33298832   -0.00000036   -0.00013159 


