%nprocshared=2 
%mem=2GB 
# 6-31+g(d) scrf=(solvent=water,pcm) 
int=ultrafine m062x scf=tight

tmpdir/M1_conf_29_1.gjf 

0 1
C                   0.30736699    0.00000459   -0.00078098 
H                  -0.02143089    0.89602326   -0.51398231 
H                  -0.02223171   -0.00367572    1.03149540 
H                  -0.02140831   -0.89233225   -0.52036525 
H                   1.47627636   -0.00000071   -0.00003608 


