%nprocshared=2 
%mem=2GB 
# 6-31+g(d) scrf=(solvent=water,pcm) 
int=ultrafine m062x scf=tight

tmpdir/M1_conf_7_1.gjf 

0 1
C                   0.36448199    0.00004184   -0.00175676 
H                   0.02699900    0.89456061   -0.51457663 
H                   0.02474230   -0.00358430    1.02849231 
H                   0.02696679   -0.89082727   -0.52085871 
H                   1.52642245    0.00001279   -0.00027628 


