%nprocshared=2 
%mem=2GB 
# 6-31+g(d) scrf=(solvent=water,pcm) 
int=ultrafine m062x scf=tight

tmpdir/M1_conf_47_1.gjf 

0 1
C                   0.19383716   -0.00000003   -0.00104329 
H                  -0.07432973    0.90877803   -0.52120797 
H                  -0.07473143   -0.00384032    1.04587527 
H                  -0.07434333   -0.90494096   -0.52784925 
H                   1.43822961   -0.00000230   -0.00009579 


