%nprocshared=2 
%mem=2GB 
# 6-31+g(d) scrf=(solvent=water,pcm) 
int=ultrafine m062x scf=tight

tmpdir/M1_conf_83_1.gjf 

0 1
C                  -0.02884901    0.00000340   -0.00117694 
H                  -0.10140786    0.93239100   -0.53490817 
H                  -0.10235392   -0.00395324    1.07304167 
H                  -0.10141548   -0.92841793   -0.54177742 
H                   1.38110156   -0.00000020   -0.00014793 


