%nprocshared=2 
%mem=2GB 
# 6-31+g(d) scrf=(solvent=water,pcm) 
int=ultrafine m062x scf=tight

tmpdir/M1_conf_86_1.gjf 

0 1
C                  -0.04756630    0.00000358   -0.00117320 
H                  -0.10125847    0.93329589   -0.53541141 
H                  -0.10219469   -0.00394187    1.07410532 
H                  -0.10126482   -0.92933182   -0.54226479 
H                   1.37619077   -0.00000040   -0.00014251 


