%nprocshared=2 
%mem=2GB 
# 6-31+g(d) scrf=(solvent=water,pcm) 
int=ultrafine m062x scf=tight

tmpdir/M1_conf_113_1.gjf 

0 1
C                  -0.22189183    0.00000494   -0.00113706 
H                  -0.09964146    0.92974564   -0.53320527 
H                  -0.10037607   -0.00389375    1.07009468 
H                  -0.09964892   -0.92583343   -0.53996710 
H                   1.32962896   -0.00000034   -0.00013121 


