%nprocshared=2 
%mem=2GB 
# 6-31+g(d) scrf=(solvent=water,pcm) 
int=ultrafine m062x scf=tight

tmpdir/M1_conf_9_1.gjf 

0 1
C                   0.36059618    0.00003890   -0.00160605 
H                   0.02331116    0.89454844   -0.51440946 
H                   0.02121668   -0.00358578    1.02868652 
H                   0.02328435   -0.89082515   -0.52068757 
H                   1.52247334    0.00001175   -0.00023058 


