%nprocshared=2 
%mem=2GB 
# 6-31+g(d) scrf=(solvent=water,pcm) 
int=ultrafine m062x scf=tight

tmpdir/M1_conf_13_1.gjf 

0 1
C                   0.35086561    0.00003187   -0.00128774 
H                   0.01427630    0.89455532   -0.51408640 
H                   0.01236959   -0.00358238    1.02910034 
H                   0.01426209   -0.89086272   -0.52034435 
H                   1.51259196    0.00000913   -0.00013921 


