%nprocshared=2 
%mem=2GB 
# 6-31+g(d) scrf=(solvent=water,pcm) 
int=ultrafine m062x scf=tight

tmpdir/M1_conf_120_1.gjf 

0 1
C                  -0.26513898    0.00000529   -0.00112862 
H                  -0.10189639    0.92588582   -0.53095362 
H                  -0.10260105   -0.00387493    1.06567552 
H                  -0.10191100   -0.92199689   -0.53767682 
H                   1.31783809   -0.00000027   -0.00013046 


