%nprocshared=2 
%mem=2GB 
# 6-31+g(d) scrf=(solvent=water,pcm) 
int=ultrafine m062x scf=tight

tmpdir/M1_conf_52_1.gjf 

0 1
C                   0.16341806    0.00000090   -0.00108115 
H                  -0.08312090    0.91263362   -0.52350957 
H                  -0.08364453   -0.00386265    1.05030237 
H                  -0.08313387   -0.90877168   -0.53019213 
H                   1.43037885   -0.00000181   -0.00010361 


