%nprocshared=2 
%mem=2GB 
# 6-31+g(d) scrf=(solvent=water,pcm) 
int=ultrafine m062x scf=tight

tmpdir/M1_conf_50_1.gjf 

0 1
C                   0.17562323    0.00000051   -0.00106738 
H                  -0.07982407    0.91108683   -0.52258621 
H                  -0.08029806   -0.00385456    1.04852381 
H                  -0.07983794   -0.90723389   -0.52925337 
H                   1.43350577   -0.00000201   -0.00010071 


