%nprocshared=2 
%mem=2GB 
# 6-31+g(d) scrf=(solvent=water,pcm) 
int=ultrafine m062x scf=tight

tmpdir/M1_conf_70_1.gjf 

0 1
C                   0.05217613    0.00000295   -0.00114860 
H                  -0.09974619    0.92581914   -0.53123938 
H                  -0.10071024   -0.00390729    1.06550089 
H                  -0.09975725   -0.92189793   -0.53801973 
H                   1.40212755   -0.00000078   -0.00012428 


