%nprocshared=2 
%mem=2GB 
# 6-31+g(d) scrf=(solvent=water,pcm) 
int=ultrafine m062x scf=tight

tmpdir/M1_conf_115_1.gjf 

0 1
C                  -0.23427274    0.00000503   -0.00113412 
H                  -0.10006512    0.92873279   -0.53261365 
H                  -0.10078369   -0.00388850    1.06893684 
H                  -0.10007422   -0.92482693   -0.53936490 
H                   1.32626539   -0.00000032   -0.00013091 


