%nprocshared=2 
%mem=2GB 
# 6-31+g(d) scrf=(solvent=water,pcm) 
int=ultrafine m062x scf=tight

tmpdir/M2_conf_120_9.gjf 

0 1
H                   0.00000000    0.00000000    0.00000000 
C                   1.08780000    0.00000000    0.00000000 
Cl                  0.81591000    0.00000000    1.77682000 
H                   1.47355000    0.89520000   -0.48282000 
H                   1.47355000   -0.89520000   -0.48282000 


