%nprocshared=2 
%mem=2GB 
# 6-31+g(d) scrf=(solvent=water,pcm) 
int=ultrafine m062x scf=tight

tmpdir/M2_conf_102_5.gjf 

0 1
H                   0.00000000    0.00000000    0.00000000 
C                   1.08780000    0.00000000    0.00000000 
H                   1.62758000    0.00000000    0.94443000 
H                   1.47355000   -0.84981000   -0.55886000 
H                   1.44790000    0.96738000   -0.52175000 


