%nprocshared=2 
%mem=2GB 
# 6-31+g(d) scrf=(solvent=water,pcm) 
int=ultrafine m062x scf=tight

tmpdir/M2_conf_37_4.gjf 

0 1
C                   0.00000000    0.00000000    0.00000000 
Cl                  1.86170000    0.00000000    0.00000000 
H                  -0.33868000    0.00000000   -1.03373000 
H                  -0.33868000    0.89524000    0.51687000 
H                  -0.33868000   -0.89524000    0.51687000 


