%nprocshared=2 
%mem=2GB 
# 6-31+g(d) scrf=(solvent=water,pcm) 
int=ultrafine m062x scf=tight

tmpdir/M2_conf_63_1.gjf 

0 1
C                   0.00000000    0.00000000    0.00000000 
H                   1.07840000    0.00000000    0.00000000 
H                  -0.38575000    0.00000000   -1.01711000 
H                  -0.38575000   -0.84981000    0.55886000 
H                  -0.36010000    0.96738000    0.52175000 


