%nprocshared=2 
%mem=2GB 
# 6-31+g(d) scrf=(solvent=water,pcm) 
int=ultrafine m062x scf=tight

tmpdir/M2_ref_5.gjf 

0 1
H                   0.00000000    1.03372549   -1.47486169 
C                   0.00000000    0.00000000   -1.13618253 
H                  -0.89523242   -0.51686224   -1.47486169 
H                   0.89523242   -0.51686224   -1.47486169 
H                   0.00000000    0.00000000    0.02039891 


