%chk=12-Pre.chk
%nprocshared=16
%mem=16GB
# 6-31+g(d,p) scrf=(smd,solvent=toluene) geom=connectivity m06l

title card

0 1
 Al                 0.00000000    0.00000000    0.00000000
 N                  0.00000000    0.00000000    1.97684442
 N                  1.96570862    0.00000000   -0.05859648
 C                  1.08140999    0.11423536    2.83062031
 C                 -1.02573997   -0.45117743    2.75360744
 O                 -0.12086909   -2.05534171    0.18480130
 O                 -0.20972741   -0.32527435   -1.79156749
 C                  2.84306804   -1.05030800    0.10502472
 C                  2.73295281    1.07022673   -0.40491183
 C                  0.77558964   -0.25644081    4.12227661
 H                  2.03268137    0.45747996    2.44177427
 C                 -2.36845894   -0.66423277    2.37617080
 C                 -0.59936289   -0.63782986    4.10540185
 C                 -0.26138610   -2.70015961   -0.86974763
 C                  0.67563030    0.05118303   -2.78562355
 C                  4.15157577   -0.68297540   -0.13337405
 H                  2.45441634   -2.02118661    0.38664536
 C                  2.31463777    2.39481671   -0.65806188
 C                  4.11410150    0.70217417   -0.47167209
 H                  1.44817801   -0.25129927    4.97041615
 C                 -3.26656245   -1.10627519    3.36311464
 C                 -2.84270211   -0.27985673    1.07993208
 C                 -1.52174670   -1.09152725    5.05663278
 C                 -1.60462093   -3.07289741   -1.41292097
 O                  0.83969174   -3.14935697   -1.44278298
 H                  1.63957181   -0.49302181   -2.74484029
 H                  0.92910216    1.12940506   -2.76172927
 H                  0.24197267   -0.14173543   -3.78273605
 H                  5.02295090   -1.32219918   -0.07032778
 C                  3.30094913    3.33722953   -0.99671924
 C                  0.94691319    2.81096365   -0.53529296
 C                  5.06415882    1.67207801   -0.81737340
 C                 -2.84497393   -1.33212784    4.67636312
 H                 -4.30935477   -1.25622607    3.09092480
 N                 -2.07317380    0.11192807    0.11174929
 H                 -3.93102219   -0.25379182    0.93533979
 H                 -1.21805144   -1.24571335    6.09015513
 C                 -1.87880266   -4.58389826   -1.37734507
 H                 -2.33897040   -2.52973245   -0.81543848
 H                 -1.68433374   -2.70331483   -2.44293222
 C                  0.79552416   -3.84378258   -2.72474949
 C                  4.65019067    2.98000722   -1.08057388
 H                  2.99596272    4.36371436   -1.18990454
 N                 -0.04829632    2.03466440   -0.22782561
 H                  0.74965189    3.88097834   -0.68257416
 H                  6.11955689    1.41403835   -0.87854497
 H                 -3.56197855   -1.67735361    5.41596574
 C                 -2.71607151    0.74527562   -1.03310266
 C                 -1.25703277   -5.34646957   -2.53907958
 H                 -2.96424315   -4.72189542   -1.39931359
 H                 -1.53759660   -4.99774613   -0.41937571
 C                  0.26087852   -5.25361757   -2.61485435
 H                  1.84112461   -3.83439274   -3.03596997
 H                  0.22453293   -3.22889936   -3.43098711
 H                  5.38636986    3.73348964   -1.34646826
 C                 -1.34500426    2.68372894   -0.03759595
 C                 -2.43862743    2.28155549   -1.04615994
 H                 -2.30571643    0.29065859   -1.93668143
 H                 -3.79939171    0.56624422   -1.00093611
 H                 -1.55180918   -6.40007618   -2.48044113
 H                 -1.67948508   -4.95936010   -3.47721435
 H                  0.61452519   -5.80046718   -3.49643120
 H                  0.72774511   -5.73641234   -1.74683896
 H                 -1.68459618    2.44171695    0.97808372
 H                 -1.22197218    3.77414609   -0.08910178
 C                 -2.02956220    2.71017119   -2.45226694
 C                 -3.70639133    3.02155706   -0.61745115
 H                 -1.10785499    2.20632975   -2.76482696
 H                 -1.86427205    3.79298716   -2.50434331
 H                 -2.80990661    2.45696710   -3.17850062
 H                 -3.54280747    4.10470246   -0.58203759
 H                 -4.03672304    2.70099004    0.37820325
 H                 -4.52463478    2.83008775   -1.31957032

 1 3 1.0 2 1.0 7 1.0
 2 4 1.0 5 1.0
 3 8 1.0 9 1.0
 4 10 2.0 11 1.0
 5 13 2.0 12 1.0
 6 14 2.0
 7 15 1.0
 8 16 2.0 17 1.0
 9 19 2.0 18 1.0
 10 13 1.0 20 1.0
 11
 12 21 2.0 22 1.0
 13 23 1.0
 14 25 1.0 24 1.0
 15 28 1.0 27 1.0 26 1.0
 16 19 1.0 29 1.0
 17
 18 30 2.0 31 1.0
 19 32 1.0
 20
 21 33 1.0 34 1.0
 22 36 1.0 35 2.0
 23 33 2.0 37 1.0
 24 40 1.0 39 1.0 38 1.0
 25 41 1.0
 26
 27
 28
 29
 30 42 1.0 43 1.0
 31 45 1.0 44 2.0
 32 42 2.0 46 1.0
 33 47 1.0
 34
 35 48 1.0
 36
 37
 38 50 1.0 51 1.0 49 1.0
 39
 40
 41 52 1.0 53 1.0 54 1.0
 42 55 1.0
 43
 44 56 1.0
 45
 46
 47
 48 57 1.0 59 1.0 58 1.0
 49 61 1.0 60 1.0 52 1.0
 50
 51
 52 63 1.0 62 1.0
 53
 54
 55
 56 65 1.0 64 1.0 57 1.0
 57 66 1.0 67 1.0
 58
 59
 60
 61
 62
 63
 64
 65
 66 70 1.0 68 1.0 69 1.0
 67 71 1.0 73 1.0 72 1.0
 68
 69
 70
 71
 72
 73

