ref = 12-Pre_new.gjf
conf = 12-Ts1.gjf 
method = 1
cpu = 8
pal = 4
calculator = g16
scale= 10

#fraglist
15,26-28
41,53-54
52,62-63
49,60-61
38,50-51
24,39-40
56,64-65
57
67,71-73
66,68-70
48,58-59
1-3,7,22,31,35-36,44-45
3,8-9,16-17,19,29
2,4-5,10-11,13,20
6,14
5,12-13,21,23,33-34,37,47
9,18-19,30,32,42-43,46,55
25
