ref = 1a-HCl-2e-MajorPre_cpcm.gjf
conf = 1a-HCl-2e-MajorTS_cpcm.gjf
method = 1
cpu = 8
pal = 3
calculator = ani-2x
scale = 10

#fraglist
116,117,118
28,33,34
25,31,32
22,26,27
24,29,30
113,114
21,23
15,16,17,18,19,20,115
35,36,38,39,40,41,42,43,44,45,46,47,48,49,50
37,51,130
62
53,54,55,56,57,58,59,60,61
52,63,64,65,66
67,68,69,70,71,72,73,74,75,131,132,133,134,135,136,137,138
82,83,84,85
76,77,78,79,80,81
86,95
87
88,89,90
91,92,93,94
96,97,98,99,100,101,102,103,104,105,106,107,108,109,110,111,112
126,127,128,129
122,123,124,125
119,120,121
12,13,14
11
1,2,3,4,5,6,7,8,9,10

#charge
15 -1
130 1