%chk=4j.chk
%nprocshared=8
%mem=8GB
# M062X/def2TZVPP geom=connectivity

title card

0 1
 N                  1.57433794   -1.83414819   -0.38228030
 H                  1.56486511   -1.54988166   -1.35238812
 H                  1.70522894   -2.83467573   -0.34611959
 B                 -0.17753149   -0.02579991   -0.24407203
 C                  0.34765889   -1.41637150    0.28738069
 H                 -0.48403329   -2.13238119    0.17629062
 H                  0.52393733   -1.35095828    1.36634202
 O                 -1.13872374    0.70486068    0.39094960
 O                  0.31970220    0.44633527   -1.41635304
 C                 -1.69922068    0.26960066    1.61255371
 H                 -0.97903174    0.36428605    2.42682036
 H                 -2.55936524    0.89903077    1.82787369
 H                 -2.02797854   -0.76959552    1.55195751
 C                 -0.14512688    1.67638702   -1.94492662
 H                 -1.21639868    1.63430638   -2.14261544
 H                  0.04661270    2.49396636   -1.25007974
 H                  0.38933317    1.85730279   -2.87406430
 H                   1.16737885   -0.67704677   27.56472326 
 H                   0.71432315   -0.63735423   26.98192174 

 1 2 1.0 3 1.0 5 1.0
 2
 3
 4 5 1.0 8 1.0 9 1.0
 5 6 1.0 7 1.0
 6
 7
 8 10 1.0
 9 14 1.0
 10 11 1.0 12 1.0 13 1.0
 11
 12
 13
 14 15 1.0 16 1.0 17 1.0
 15
 16
 17
 18 19 1.0
 19

