%chk=bntsmoe.chk
%nprocshared=16
%mem=16GB
# b3lyp/6-31g(d) geom=connectivity

title

0 1
 C                  4.02767000    0.84653700    0.45232700
 C                  4.19210100   -0.49675700    1.21967200
 C                  3.97127300   -1.81705700    0.44784400
 C                  2.51909900   -2.33393300    0.37608900
 C                  2.69089300    1.61424100    0.57995000
 C                  1.60982100    1.29196200   -0.47913000
 H                  4.26651900    0.69429000   -0.61009800
 H                  3.56214700   -0.48651500    2.12080300
 H                  4.36081400   -1.70761300   -0.57324000
 H                  4.80656200    1.52149500    0.82834200
 H                  5.22587500   -0.52232900    1.58713800
 H                  4.57324800   -2.60434000    0.92168600
 H                  2.48265700   -3.25991000   -0.20925300
 H                  2.16981400   -2.59938700    1.38437300
 H                  2.90488500    2.68841200    0.51262500
 H                  2.24624700    1.44513500    1.56828700
 H                  2.00488500    1.53347300   -1.48141000
 C                  1.29895800   -0.14302000   -0.42258200
 C                  1.61805900   -1.31333700   -0.18471200
 N                 -0.68290700   -0.40283100   -1.55893400
 N                 -0.70572100   -1.64323000   -1.36061400
 N                 -0.04695300   -2.52104300   -0.96491900
 C                 -1.95948000    0.33457100   -1.60509700
 H                 -1.65016500    1.37790700   -1.68916000
 H                 -2.49825800    0.07289000   -2.52529500
 C                 -2.85566400    0.13658400   -0.39806900
 C                 -2.46230400    0.60515300    0.86390500
 C                 -4.08173600   -0.52446900   -0.52546500
 C                 -3.28548300    0.41331800    1.97238700
 H                 -1.50802500    1.11487700    0.96491100
 C                 -4.90811100   -0.71458200    0.58459700
 H                 -4.39373700   -0.89314400   -1.50055600
 C                 -4.51062300   -0.24607300    1.83658700
 H                 -2.97220600    0.78096800    2.94635300
 H                 -5.85845600   -1.22944700    0.46957200
 H                 -5.15048700   -0.39318400    2.70282100
 O                  0.42996500    2.07483000   -0.26408400
 C                  0.53664200    3.42501600   -0.67678600
 H                 -0.46248200    3.85942600   -0.58576400
 H                  1.22760100    4.00842600   -0.05196100
 H                  0.86522400    3.50074200   -1.72534300

 1 2 1.0 5 1.0 7 1.0 10 1.0
 2 3 1.0 8 1.0 11 1.0
 3 4 1.0 9 1.0 12 1.0
 4 13 1.0 14 1.0 19 1.0
 5 6 1.0 15 1.0 16 1.0
 6 17 1.0 18 1.0 37 1.0
 7
 8
 9
 10
 11
 12
 13
 14
 15
 16
 17
 18 19 3.0
 19
 20 21 1.0 23 1.0
 21 22 3.0
 22
 23 24 1.0 25 1.0 26 1.0
 24
 25
 26 27 1.0 28 2.0
 27 29 2.0 30 1.0
 28 31 1.0 32 1.0
 29 33 1.0 34 1.0
 30
 31 33 2.0 35 1.0
 32
 33 36 1.0
 34
 35
 36
 37 38 1.0
 38 39 1.0 40 1.0 41 1.0
 39
 40
 41

