%nprocshared=2 
%mem=2GB 
# hf/3-21g 

tmpdir/M1_conf_213_0.gjf 

0 1
C                  -0.25340910    0.12104350   -0.45421920 
H                  -0.46359120    1.16689740   -0.11861650 
H                   0.58628850   -0.26194640   -0.07795370 
H                  -1.02105550   -0.45780920   -0.28374820 
H                  -0.05659364    0.02558279    1.53012808 


