%nprocshared=2 
%mem=2GB 
# hf/3-21g 

tmpdir/M1_conf_135_0.gjf 

0 1
C                   0.18961660   -0.08369590    0.10455050 
H                   0.30146290    1.04583610   -0.09839940 
H                   1.12710470   -0.70044750    0.07924640 
H                  -0.61254700   -0.69618020    0.01078970 
H                   0.03890417   -0.01734389    1.56728044 


