%nprocshared=2 
%mem=2GB 
# hf/3-21g 

tmpdir/M1_conf_30_0.gjf 

0 1
C                  -0.22466450   -0.06050160    0.83543550 
H                   0.04519240    0.95176790    0.47097290 
H                   0.51884040   -0.63595840    0.37632080 
H                  -1.08010890   -0.50206480    0.55595870 
H                  -0.04822735   -0.01437611    1.99539106 


