%nprocshared=2 
%mem=2GB 
# hf/3-21g 

tmpdir/M1_conf_241_0.gjf 

0 1
C                  -0.41463370    0.13147790   -0.63826700 
H                  -0.52636340    1.27078200   -0.44082320 
H                   0.44233860   -0.15820200   -0.11811320 
H                  -1.09866690   -0.51216270   -0.26991220 
H                  -0.09121956    0.02372509    1.59407813 


