%nprocshared=2 
%mem=2GB 
# hf/3-21g 

tmpdir/M1_conf_237_0.gjf 

0 1
C                  -0.39756460    0.14593750   -0.58281940 
H                  -0.50202130    1.18455280   -0.55827600 
H                   0.55566300   -0.21100070   -0.02513260 
H                  -1.26717520   -0.62920570   -0.16084890 
H                  -0.08789940    0.02949999    1.59738388 


