%nprocshared=2 
%mem=2GB 
# hf/3-21g 

tmpdir/M1_conf_289_0.gjf 

0 1
C                  -0.53267020    0.13871580   -0.78271090 
H                  -1.07962470    1.23394580   -0.62723830 
H                   0.18243890    0.04657860    0.06605510 
H                  -1.41753700   -0.58591060   -0.80392310 
H                  -0.10624185    0.02123770    1.68996867 


