%nprocshared=2 
%mem=2GB 
# hf/3-21g 

tmpdir/M1_conf_193_0.gjf 

0 1
C                  -0.07617460    0.07099390   -0.44716610 
H                  -0.23575430    1.12509460   -0.05514580 
H                   0.68818940   -0.33261490    0.06107220 
H                  -0.85183960   -0.45397620   -0.19047670 
H                  -0.01427947    0.01395595    1.43202104 


