%nprocshared=2 
%mem=2GB 
# hf/3-21g 

tmpdir/M1_conf_155_0.gjf 

0 1
C                   0.16110910   -0.02786960   -0.02975100 
H                   0.30831770    1.12784450    0.04973170 
H                   1.06137380   -0.57931150   -0.08243280 
H                  -0.62030510   -0.69098020   -0.25664680 
H                   0.03325228   -0.00475989    1.49637042 


