%nprocshared=2 
%mem=2GB 
# hf/3-21g 

tmpdir/M1_conf_287_0.gjf 

0 1
C                  -0.53763730    0.15896120   -0.77730840 
H                  -0.99462000    1.11047720   -0.59413830 
H                   0.19925610    0.02127030    0.05660820 
H                  -1.39867370   -0.63266110   -0.81777340 
H                  -0.10888041    0.02856660    1.68777829 


