%nprocshared=2 
%mem=2GB 
# hf/3-21g 

tmpdir/M1_conf_18_0.gjf 

0 1
C                  -0.24784750   -0.05541880    0.71709340 
H                  -0.32409970    1.04567180    0.43536900 
H                   0.55229910   -0.78024230    0.33179170 
H                  -1.20335140   -0.26246840    0.66310650 
H                  -0.04779868   -0.01510950    1.99041944 


