%nprocshared=2 
%mem=2GB 
# hf/3-21g 

tmpdir/M1_conf_99_0.gjf 

0 1
C                   0.04849040   -0.11164720    0.60215920 
H                   0.05889870    0.97319270    0.16573290 
H                   0.93402010   -0.66847360    0.47576140 
H                  -0.87228840   -0.49433810    0.16125580 
H                   0.01483473   -0.02683411    1.77286320 


