%nprocshared=2 
%mem=2GB 
# hf/3-21g 

tmpdir/M1_conf_242_0.gjf 

0 1
C                  -0.41489930    0.13213400   -0.64971610 
H                  -0.54266180    1.23110660   -0.42359360 
H                   0.41810890   -0.13683780   -0.15544020 
H                  -1.07962870   -0.47612180   -0.32423870 
H                  -0.09064687    0.02380183    1.59400092 


