%nprocshared=2 
%mem=2GB 
# hf/3-21g 

tmpdir/M1_conf_10_0.gjf 

0 1
C                  -0.28951670   -0.01226600    0.67070970 
H                  -0.12151540    0.95380750    0.12024820 
H                   0.38360140   -0.71543870    0.23102740 
H                  -1.19897410   -0.45019450    0.66064050 
H                  -0.05705344   -0.00370066    1.99598171 


