%nprocshared=2 
%mem=2GB 
# hf/3-21g 

tmpdir/M1_conf_23_0.gjf 

0 1
C                  -0.23003630   -0.05536380    0.76410700 
H                  -0.04352300    0.93762320    0.62199330 
H                   0.52462400   -0.62072810    0.36863040 
H                  -1.35214630   -0.50626420    0.64547580 
H                  -0.04528425   -0.01245996    1.98888405 


