%nprocshared=2 
%mem=2GB 
# hf/3-21g 

tmpdir/M1_conf_165_0.gjf 

0 1
C                   0.13876310   -0.02176310   -0.11339220 
H                  -0.03450260    1.12435910    0.01391730 
H                   1.05469270   -0.46794150    0.05773590 
H                  -0.86681950   -0.42427090    0.09638220 
H                   0.03309560   -0.00803076    1.46518681 


