%nprocshared=2 
%mem=2GB 
# hf/3-21g 

tmpdir/M1_conf_209_0.gjf 

0 1
C                  -0.22222290    0.10172430   -0.45445180 
H                  -0.43418080    1.12178180   -0.28078620 
H                   0.83092130   -0.25051490   -0.20396830 
H                  -1.24060880   -0.41514200   -0.21075810 
H                  -0.04939720    0.01975888    1.50977242 


