%nprocshared=2 
%mem=2GB 
# hf/3-21g 

tmpdir/M1_conf_36_0.gjf 

0 1
C                  -0.16376020   -0.04391700    0.83681950 
H                  -0.28350850    0.90498940    0.26897290 
H                   0.62909180   -0.82815620    0.47944730 
H                  -1.21543970   -0.40889470    0.54358950 
H                  -0.03084281   -0.01031159    1.98971694 


