%nprocshared=2 
%mem=2GB 
# hf/3-21g 

tmpdir/M1_conf_202_0.gjf 

0 1
C                  -0.18087040    0.06811970   -0.45881130 
H                  -0.20837960    1.17404840   -0.47153840 
H                   0.72606760   -0.25935590   -0.09507480 
H                  -0.92239290   -0.44528920   -0.17980510 
H                  -0.04190892    0.00996105    1.47233790 


