%nprocshared=2 
%mem=2GB 
# hf/3-21g 

tmpdir/M1_conf_58_0.gjf 

0 1
C                  -0.13447130   -0.13298900    0.56102820 
H                  -0.18142040    0.99568500    0.32730600 
H                   0.75590150   -0.77517240    0.22555140 
H                  -1.02577690   -0.37118570    0.17170460 
H                  -0.02407087   -0.02910786    1.92098039 


