%nprocshared=2 
%mem=2GB 
# hf/3-21g 

tmpdir/M1_conf_17_0.gjf 

0 1
C                  -0.24447010   -0.04720410    0.70977440 
H                  -0.34667790    1.02053070    0.39165180 
H                   0.55011330   -0.79891330    0.31394010 
H                  -1.27940910   -0.27249680    0.65714830 
H                  -0.04585663   -0.01280260    1.99136303 


