%nprocshared=2 
%mem=2GB 
# hf/3-21g 

tmpdir/M1_conf_273_0.gjf 

0 1
C                  -0.51260730    0.13060950   -0.79614750 
H                  -0.83335720    1.15211700   -0.74414830 
H                   0.40463280   -0.04818720   -0.40080160 
H                  -1.26171860   -0.49103180   -0.65864850 
H                  -0.10684521    0.01957971    1.64657530 


