%nprocshared=2 
%mem=2GB 
# hf/3-21g 

tmpdir/M1_conf_100_0.gjf 

0 1
C                   0.06204390   -0.10570590    0.59775500 
H                   0.04490060    0.88021610    0.13902490 
H                   0.89099510   -0.63525730    0.45945450 
H                  -0.88071680   -0.47534510    0.15226170 
H                   0.01852672   -0.02521798    1.76873640 


