%nprocshared=2 
%mem=2GB 
# hf/3-21g 

tmpdir/M1_conf_258_0.gjf 

0 1
C                  -0.39316740    0.14845630   -0.83598840 
H                  -0.71833540    1.22976550   -0.77582750 
H                   0.39050080   -0.18608500   -0.05811070 
H                  -1.25567110   -0.71085500   -0.81012660 
H                  -0.07303539    0.02762046    1.58626156 


