%nprocshared=2 
%mem=2GB 
# hf/3-21g 

tmpdir/M1_conf_211_0.gjf 

0 1
C                  -0.24070300    0.10584600   -0.45341500 
H                  -0.46752430    1.16128950   -0.18575060 
H                   0.70905880   -0.25120400   -0.15597030 
H                  -1.08876220   -0.38675030   -0.25530560 
H                  -0.05399864    0.02068544    1.52031541 


