%nprocshared=2 
%mem=2GB 
# hf/3-21g 

tmpdir/M1_conf_189_0.gjf 

0 1
C                  -0.03565940    0.08655200   -0.40325250 
H                  -0.25531060    0.98495740    0.01010170 
H                   0.92809270   -0.39781050   -0.00733700 
H                  -1.07072970   -0.45112910   -0.26821860 
H                  -0.00423600    0.02079403    1.42974500 


