%nprocshared=2 
%mem=2GB 
# hf/3-21g 

tmpdir/M1_conf_20_0.gjf 

0 1
C                  -0.24192410   -0.06432370    0.73226180 
H                  -0.23096730    1.03930280    0.52498630 
H                   0.51018310   -0.69357860    0.37483290 
H                  -1.19968750   -0.32217660    0.66600380 
H                  -0.04721421   -0.01707886    1.98846083 


