%nprocshared=2 
%mem=2GB 
# hf/3-21g 

tmpdir/M1_conf_107_0.gjf 

0 1
C                   0.09699490   -0.08508240    0.53693930 
H                   0.18496070    0.95749920   -0.12989170 
H                   0.99646360   -0.73756240    0.18459350 
H                  -0.79842570   -0.60970570    0.29193220 
H                   0.02173787   -0.01915861    1.73627225 


