%nprocshared=2 
%mem=2GB 
# hf/3-21g 

tmpdir/M1_conf_71_0.gjf 

0 1
C                  -0.08348900   -0.08847020    0.46596240 
H                   0.11116640    0.82354570    0.14178290 
H                   0.67109630   -0.68867800    0.37413450 
H                  -0.96403220   -0.70004920    0.49869320 
H                  -0.01480653   -0.01642253    1.86465387 


