%nprocshared=2 
%mem=2GB 
# hf/3-21g 

tmpdir/M1_conf_162_0.gjf 

0 1
C                   0.13874480   -0.01017880   -0.08281690 
H                   0.07769130    1.00129630    0.02469290 
H                   1.07376640   -0.53361120    0.01913640 
H                  -0.69829290   -0.49856620   -0.12821930 
H                   0.03069626   -0.00209013    1.47572154 


