%nprocshared=2 
%mem=2GB 
# hf/3-21g 

tmpdir/M1_conf_267_0.gjf 

0 1
C                  -0.45560850    0.11190310   -0.85721580 
H                  -0.75572190    1.13499450   -0.76067340 
H                   0.42819820    0.01972120   -0.13181290 
H                  -1.41180400   -0.49267910   -0.48326230 
H                  -0.08994125    0.01352046    1.60742066 


