%nprocshared=2 
%mem=2GB 
# hf/3-21g 

tmpdir/M1_conf_52_0.gjf 

0 1
C                  -0.13564080   -0.10085060    0.62744560 
H                  -0.00370230    0.86367790    0.40968160 
H                   0.57721700   -0.65277540    0.22684280 
H                  -1.14927030   -0.57562160    0.33217660 
H                  -0.02489329   -0.02000884    1.93927728 


