%nprocshared=2 
%mem=2GB 
# hf/3-21g 

tmpdir/M1_conf_91_0.gjf 

0 1
C                   0.00179780   -0.10448900    0.58117470 
H                   0.19606230    0.84018440    0.44107610 
H                   0.79693880   -0.61766560    0.35453480 
H                  -0.85972120   -0.71134880    0.27984990 
H                   0.00328965   -0.02059907    1.80039829 


