%nprocshared=2 
%mem=2GB 
# hf/3-21g 

tmpdir/M1_conf_271_0.gjf 

0 1
C                  -0.49121720    0.10993190   -0.81876830 
H                  -0.85062960    1.25655730   -0.74167750 
H                   0.43568510   -0.00653580   -0.32502490 
H                  -1.34007190   -0.46227930   -0.57864950 
H                  -0.10033698    0.01240030    1.63286904 


