%nprocshared=2 
%mem=2GB 
# hf/3-21g 

tmpdir/M1_conf_62_0.gjf 

0 1
C                  -0.11315620   -0.12073480    0.51125330 
H                  -0.06137030    0.84832590    0.31817600 
H                   0.69688050   -0.65528440    0.36477770 
H                  -1.14607460   -0.49047840    0.20553430 
H                  -0.01792321   -0.02512300    1.90077864 


