%nprocshared=2 
%mem=2GB 
# hf/3-21g 

tmpdir/M1_conf_33_0.gjf 

0 1
C                  -0.17956860   -0.04606210    0.84569050 
H                  -0.13922930    0.86792580    0.37158970 
H                   0.51254920   -0.69499880    0.45541570 
H                  -1.24553360   -0.49549660    0.48217750 
H                  -0.03424168   -0.01033348    1.99473449 


