%nprocshared=2 
%mem=2GB 
# hf/3-21g 

tmpdir/M1_conf_49_0.gjf 

0 1
C                  -0.16541750   -0.09231870    0.66189430 
H                   0.10307330    0.95742870    0.39228360 
H                   0.64856310   -0.68808820    0.24063060 
H                  -1.01224050   -0.57616810    0.58160420 
H                  -0.03621264   -0.01946356    1.94554668 


