%nprocshared=2 
%mem=2GB 
# hf/3-21g 

tmpdir/M1_conf_59_0.gjf 

0 1
C                  -0.13044290   -0.13393620    0.54678370 
H                  -0.17152440    0.95959920    0.32382110 
H                   0.72647680   -0.73759420    0.26326750 
H                  -1.01389570   -0.36884270    0.18059830 
H                  -0.02285739   -0.02941469    1.91574618 


