%nprocshared=2 
%mem=2GB 
# hf/3-21g 

tmpdir/M1_conf_190_0.gjf 

0 1
C                  -0.04676460    0.08324410   -0.41567050 
H                  -0.25935290    0.99922880    0.00197190 
H                   0.87862520   -0.38491280    0.02022500 
H                  -1.00091980   -0.42738010   -0.25833490 
H                  -0.00708305    0.01928812    1.42967154 


