%nprocshared=2 
%mem=2GB 
# hf/3-21g 

tmpdir/M1_conf_106_0.gjf 

0 1
C                   0.08967480   -0.08525050    0.55230770 
H                   0.15116340    0.91941280   -0.11829260 
H                   1.01490300   -0.74145960    0.20593180 
H                  -0.80066220   -0.56285140    0.26687670 
H                   0.02041734   -0.01930554    1.74273621 


