%nprocshared=2 
%mem=2GB 
# hf/3-21g 

tmpdir/M1_conf_77_0.gjf 

0 1
C                  -0.03502280   -0.10092320    0.50732400 
H                  -0.11999150    0.95822960   -0.07738170 
H                   0.84022120   -0.84376890    0.22106290 
H                  -0.99060400   -0.51429220    0.44810930 
H                  -0.00302608   -0.02141899    1.85643644 


