%nprocshared=2 
%mem=2GB 
# hf/3-21g 

tmpdir/M1_conf_212_0.gjf 

0 1
C                  -0.24817190    0.11101750   -0.45325710 
H                  -0.46990110    1.17066650   -0.14723930 
H                   0.63794760   -0.25269940   -0.12216480 
H                  -1.02991450   -0.40220370   -0.27385860 
H                  -0.05568695    0.02226718    1.52543145 


