%nprocshared=2 
%mem=2GB 
# hf/3-21g 

tmpdir/M1_conf_75_0.gjf 

0 1
C                  -0.04924740   -0.08971560    0.49219210 
H                  -0.04924420    0.94317130   -0.03778010 
H                   0.81869770   -0.84813210    0.26178770 
H                  -1.02607920   -0.62128940    0.48582560 
H                  -0.00641003   -0.01747676    1.85964864 


