%nprocshared=2 
%mem=2GB 
# hf/3-21g 

tmpdir/M1_conf_298_0.gjf 

0 1
C                  -0.57601240    0.13643540   -0.82167370 
H                  -0.87344040    1.19490140   -1.07321420 
H                   0.31657710   -0.04560930   -0.19281130 
H                  -1.37319660   -0.70528860   -0.73386790 
H                  -0.11807005    0.02012613    1.69196114 


