%nprocshared=2 
%mem=2GB 
# hf/3-21g 

tmpdir/M1_conf_250_0.gjf 

0 1
C                  -0.38462960    0.14668770   -0.75354660 
H                  -0.81220120    1.21387760   -0.46774540 
H                   0.53786930   -0.14186330   -0.26971870 
H                  -1.27677120   -0.51385970   -0.75459290 
H                  -0.07479659    0.02788164    1.58748653 


