%nprocshared=2 
%mem=2GB 
# hf/3-21g 

tmpdir/M1_conf_296_0.gjf 

0 1
C                  -0.56902630    0.14678510   -0.80813010 
H                  -0.87892240    1.03489290   -0.96988110 
H                   0.26492400   -0.01558320   -0.12458030 
H                  -1.38613400   -0.64724170   -0.74514990 
H                  -0.11634090    0.02386428    1.69361725 


