%nprocshared=2 
%mem=2GB 
# hf/3-21g 

tmpdir/M1_conf_46_0.gjf 

0 1
C                  -0.16432520   -0.06958770    0.69907320 
H                   0.08016350    0.97406140    0.36662880 
H                   0.72616430   -0.74486250    0.30033370 
H                  -1.13474740   -0.61916200    0.77599520 
H                  -0.03623841   -0.01434106    1.95204447 


