%nprocshared=2 
%mem=2GB 
# hf/3-21g 

tmpdir/M1_conf_92_0.gjf 

0 1
C                   0.00446010   -0.09977400    0.58470070 
H                   0.18554960    0.81335480    0.45382560 
H                   0.82559600   -0.63345560    0.38913040 
H                  -0.85783410   -0.70979230    0.26531990 
H                   0.00389927   -0.01918216    1.79592255 


