%nprocshared=2 
%mem=2GB 
# hf/3-21g 

tmpdir/M1_conf_127_0.gjf 

0 1
C                   0.17272610   -0.12373660    0.19330470 
H                   0.23715480    1.09127620    0.00574730 
H                   1.15789810   -0.62755110    0.15182210 
H                  -0.69789190   -0.57557470   -0.33263840 
H                   0.03706547   -0.02798556    1.61027599 


