%nprocshared=2 
%mem=2GB 
# hf/3-21g 

tmpdir/M1_conf_254_0.gjf 

0 1
C                  -0.39010680    0.15470300   -0.79219190 
H                  -0.74741890    1.08242680   -0.65144080 
H                   0.41738480   -0.16343930   -0.22140010 
H                  -1.14583330   -0.52577780   -0.88091330 
H                  -0.07433085    0.03028467    1.58809032 


