%nprocshared=2 
%mem=2GB 
# hf/3-21g 

tmpdir/M1_conf_48_0.gjf 

0 1
C                  -0.17029770   -0.08604970    0.67479000 
H                   0.11337470    0.98354100    0.38197720 
H                   0.69354880   -0.71827690    0.24867880 
H                  -1.02425770   -0.58554000    0.65671800 
H                  -0.03815438   -0.01820069    1.94788935 


