%nprocshared=2 
%mem=2GB 
# hf/3-21g 

tmpdir/M1_conf_88_0.gjf 

0 1
C                  -0.01656680   -0.12204670    0.57495250 
H                   0.17959390    1.04040820    0.30811170 
H                   0.89773480   -0.69145440    0.21266610 
H                  -0.87777280   -0.64065910    0.31882690 
H                  -0.00231481   -0.02664081    1.81675695 


