%nprocshared=2 
%mem=2GB 
# hf/3-21g 

tmpdir/M1_conf_268_0.gjf 

0 1
C                  -0.46268050    0.10793060   -0.85126440 
H                  -0.79271720    1.20150630   -0.75132500 
H                   0.45685470    0.02011520   -0.16633880 
H                  -1.43412240   -0.49353910   -0.48693300 
H                  -0.09188248    0.01199418    1.61253293 


