%nprocshared=2 
%mem=2GB 
# hf/3-21g 

tmpdir/M1_conf_266_0.gjf 

0 1
C                  -0.44935640    0.11591360   -0.85999570 
H                  -0.71941960    1.07182280   -0.77196290 
H                   0.38363180    0.01373580   -0.11230650 
H                  -1.36191880   -0.48464730   -0.49575280 
H                  -0.08829403    0.01506415    1.60340173 


