%nprocshared=2 
%mem=2GB 
# hf/3-21g 

tmpdir/M1_conf_11_0.gjf 

0 1
C                  -0.27155900   -0.01569510    0.67324460 
H                  -0.17224220    0.93468150    0.14688360 
H                   0.36344650   -0.69104060    0.25685900 
H                  -1.28737850   -0.44269340    0.65477390 
H                  -0.05132496   -0.00459738    1.99513462 


