%nprocshared=2 
%mem=2GB 
# hf/3-21g 

tmpdir/M1_conf_282_0.gjf 

0 1
C                  -0.55155020    0.15946570   -0.76486300 
H                  -0.92727080    1.24707510   -0.60911680 
H                   0.26249290   -0.11376190   -0.16626150 
H                  -1.15710890   -0.62125080   -0.81644830 
H                  -0.11612018    0.02910713    1.68097830 


