%nprocshared=2 
%mem=2GB 
# hf/3-21g 

tmpdir/M1_conf_34_0.gjf 

0 1
C                  -0.17158770   -0.04274790    0.84585610 
H                  -0.19815040    0.86990060    0.33475430 
H                   0.55677790   -0.74976120    0.46299200 
H                  -1.26373940   -0.47244830    0.48592180 
H                  -0.03212162   -0.00947895    1.99388845 


