%nprocshared=2 
%mem=2GB 
# hf/3-21g 

tmpdir/M1_conf_42_0.gjf 

0 1
C                  -0.14269020   -0.05729260    0.74866370 
H                  -0.12925610    0.87884230    0.32428930 
H                   0.57327160   -0.67913450    0.48647360 
H                  -1.18320480   -0.51256740    0.82095620 
H                  -0.02760993   -0.01343471    1.96223557 


