%nprocshared=2 
%mem=2GB 
# hf/3-21g 

tmpdir/M1_conf_120_0.gjf 

0 1
C                   0.17339600   -0.12151860    0.28125380 
H                   0.15748810    0.94552110    0.19496300 
H                   1.04334120   -0.60702190    0.24428980 
H                  -0.84512360   -0.52075960   -0.05317660 
H                   0.04035809   -0.02710730    1.64237322 


