%nprocshared=2 
%mem=2GB 
# hf/3-21g 

tmpdir/M1_conf_32_0.gjf 

0 1
C                  -0.19141460   -0.05116860    0.84353620 
H                  -0.07541150    0.88508990    0.40563590 
H                   0.48436550   -0.65117410    0.44088950 
H                  -1.20115010   -0.50775790    0.49508500 
H                  -0.03775598   -0.01178394    1.99514429 


