%nprocshared=2 
%mem=2GB 
# hf/3-21g 

tmpdir/M1_conf_174_0.gjf 

0 1
C                   0.03527090    0.01878860   -0.19608400 
H                   0.11256200    1.16042820   -0.14315360 
H                   0.94674910   -0.40618500   -0.03180710 
H                  -0.69701780   -0.57036180    0.20564890 
H                   0.00443646    0.00184871    1.44947947 


