%nprocshared=2 
%mem=2GB 
# hf/3-21g 

tmpdir/M1_conf_63_0.gjf 

0 1
C                  -0.11456890   -0.11539150    0.50240840 
H                  -0.00788590    0.86744030    0.30454050 
H                   0.75066790   -0.67544440    0.38104730 
H                  -1.17552640   -0.54389660    0.22999960 
H                  -0.01899957   -0.02347628    1.89629545 


