%nprocshared=2 
%mem=2GB 
# hf/3-21g 

tmpdir/M1_conf_66_0.gjf 

0 1
C                  -0.12699440   -0.10862700    0.48128680 
H                   0.14071780    0.99479940    0.23447380 
H                   0.87542960   -0.74868540    0.40398850 
H                  -1.09245550   -0.64061680    0.34830640 
H                  -0.02558997   -0.02201101    1.88333375 


