%nprocshared=2 
%mem=2GB 
# hf/3-21g 

tmpdir/M1_conf_121_0.gjf 

0 1
C                   0.17462230   -0.11912340    0.26537000 
H                   0.15187410    0.86031400    0.18287490 
H                   1.04868150   -0.58712950    0.24116270 
H                  -0.81190980   -0.48815760   -0.10305240 
H                   0.04042971   -0.02606097    1.63691762 


