%nprocshared=2 
%mem=2GB 
# hf/3-21g 

tmpdir/M1_conf_276_0.gjf 

0 1
C                  -0.53403530    0.16868930   -0.77586800 
H                  -0.82805580    1.10227930   -0.72603860 
H                   0.44087310   -0.13882730   -0.38065920 
H                  -1.28832450   -0.69530460   -0.74569730 
H                  -0.11287484    0.03288718    1.66194975 


