%nprocshared=2 
%mem=2GB 
# hf/3-21g 

tmpdir/M1_conf_240_0.gjf 

0 1
C                  -0.41224950    0.13459710   -0.62699470 
H                  -0.51370260    1.28432090   -0.46556100 
H                   0.48261750   -0.18118540   -0.07905060 
H                  -1.14770650   -0.56407510   -0.21749700 
H                  -0.09104711    0.02499449    1.59404604 


