%nprocshared=2 
%mem=2GB 
# hf/3-21g 

tmpdir/M1_conf_243_0.gjf 

0 1
C                  -0.41252480    0.13800330   -0.66277800 
H                  -0.56272270    1.17410370   -0.41494350 
H                   0.42494380   -0.12326710   -0.18183610 
H                  -1.11175410   -0.47664900   -0.37074280 
H                  -0.08914219    0.02573911    1.59330125 


