%nprocshared=2 
%mem=2GB 
# hf/3-21g 

tmpdir/M1_conf_227_0.gjf 

0 1
C                  -0.32408860    0.13518770   -0.45216530 
H                  -0.58442520    1.13321010   -0.47800180 
H                   0.66802810   -0.17025530    0.04559920 
H                  -1.38705720   -0.47601070   -0.53462940 
H                  -0.06936710    0.02734056    1.59951841 


