%nprocshared=2 
%mem=2GB 
# hf/3-21g 

tmpdir/M1_conf_229_0.gjf 

0 1
C                  -0.33773980    0.12432470   -0.46259130 
H                  -0.61873940    1.18345380   -0.57047150 
H                   0.65897700   -0.16432900    0.00155200 
H                  -1.35870070   -0.42622010   -0.49667400 
H                  -0.07261134    0.02308950    1.60509331 


