%nprocshared=2 
%mem=2GB 
# hf/3-21g 

tmpdir/M1_conf_257_0.gjf 

0 1
C                  -0.39137210    0.15661540   -0.82670260 
H                  -0.71431030    1.16595600   -0.75583880 
H                   0.41538130   -0.19439420   -0.08134620 
H                  -1.25131400   -0.70045930   -0.84549480 
H                  -0.07299434    0.03063946    1.58618105 


