%nprocshared=2 
%mem=2GB 
# hf/3-21g 

tmpdir/M1_conf_171_0.gjf 

0 1
C                   0.06763350    0.00840850   -0.16623700 
H                   0.03826930    1.00796730   -0.09894200 
H                   1.04437370   -0.42492590    0.04930400 
H                  -0.75665840   -0.43371030    0.25293240 
H                   0.01302105   -0.00057270    1.45320127 


