%nprocshared=2 
%mem=2GB 
# hf/3-21g 

tmpdir/M1_conf_185_0.gjf 

0 1
C                  -0.00936730    0.06599570   -0.34523180 
H                  -0.18647320    1.12251020    0.02854960 
H                   0.90347320   -0.37763410   -0.16552060 
H                  -0.99953670   -0.48152070   -0.26284590 
H                   0.00064806    0.01483197    1.43394245 


