%nprocshared=2 
%mem=2GB 
# hf/3-21g 

tmpdir/M1_conf_73_0.gjf 

0 1
C                  -0.06259170   -0.08278800    0.47532920 
H                   0.03415330    0.84602260    0.06097700 
H                   0.72490280   -0.76486350    0.32213640 
H                  -1.02009970   -0.69594690    0.50599850 
H                  -0.00932175   -0.01481835    1.86127700 


