%nprocshared=2 
%mem=2GB 
# hf/3-21g 

tmpdir/M1_conf_79_0.gjf 

0 1
C                  -0.01560060   -0.10855100    0.51733510 
H                  -0.14731050    0.86728770   -0.03437470 
H                   0.77952740   -0.75184420    0.21047090 
H                  -0.98609370   -0.44277700    0.40273110 
H                   0.00238433   -0.02387676    1.85039368 


