%nprocshared=2 
%mem=2GB 
# hf/3-21g 

tmpdir/M1_conf_172_0.gjf 

0 1
C                   0.05265430    0.00848490   -0.17411110 
H                   0.06653390    1.06163760   -0.11590400 
H                   1.00626300   -0.41451570    0.02609720 
H                  -0.68554530   -0.44886460    0.22583480 
H                   0.00864430   -0.00099318    1.45246809 


