%nprocshared=2 
%mem=2GB 
# hf/3-21g 

tmpdir/M1_conf_210_0.gjf 

0 1
C                  -0.23162010    0.10354790   -0.45401050 
H                  -0.45532400    1.14247390   -0.23151790 
H                   0.77903450   -0.25187150   -0.18271570 
H                  -1.17018400   -0.39681380   -0.23224030 
H                  -0.05174787    0.02013381    1.51502431 


