%nprocshared=2 
%mem=2GB 
# hf/3-21g 

tmpdir/M1_conf_27_0.gjf 

0 1
C                  -0.24751700   -0.05753440    0.81381780 
H                   0.11630480    0.98141220    0.57649540 
H                   0.62507580   -0.66796550    0.29850610 
H                  -1.16174960   -0.54439030    0.61484530 
H                  -0.05435140   -0.01266963    1.99429149 


