%nprocshared=2 
%mem=2GB 
# hf/3-21g 

tmpdir/M1_conf_128_0.gjf 

0 1
C                   0.17924500   -0.11683550    0.18299280 
H                   0.25791200    1.07349010   -0.01298980 
H                   1.11940490   -0.61926510    0.13482680 
H                  -0.70971230   -0.62689470   -0.34891220 
H                   0.03884430   -0.02582562    1.60586244 


