%nprocshared=2 
%mem=2GB 
# hf/3-21g 

tmpdir/M1_conf_101_0.gjf 

0 1
C                   0.07206990   -0.09766080    0.59155630 
H                   0.04023260    0.78558560    0.11821770 
H                   0.87545620   -0.62154940    0.43000770 
H                  -0.87874790   -0.46324030    0.15266230 
H                   0.02086795   -0.02279782    1.76431363 


