%nprocshared=2 
%mem=2GB 
# hf/3-21g 

tmpdir/M1_conf_56_0.gjf 

0 1
C                  -0.13354350   -0.12344670    0.58865430 
H                  -0.15718280    1.00009950    0.34905430 
H                   0.75638490   -0.79577330    0.17981820 
H                  -1.12479680   -0.43623100    0.16094300 
H                  -0.02358673   -0.02607454    1.93019830 


