%nprocshared=2 
%mem=2GB 
# hf/3-21g 

tmpdir/M1_conf_115_0.gjf 

0 1
C                   0.13257950   -0.09855310    0.36596030 
H                   0.22843020    1.00953650    0.18417470 
H                   1.07864210   -0.75645380    0.20442790 
H                  -0.72194820   -0.62954300    0.24936890 
H                   0.02775679   -0.02086304    1.67179498 


