%nprocshared=2 
%mem=2GB 
# hf/3-21g 

tmpdir/M1_conf_74_0.gjf 

0 1
C                  -0.05563580   -0.08512950    0.48350900 
H                  -0.00727150    0.89828180    0.00791670 
H                   0.77674840   -0.81427040    0.29091810 
H                  -1.03075670   -0.66623850    0.49881100 
H                  -0.00778290   -0.01577861    1.86049245 


