%nprocshared=2 
%mem=2GB 
# hf/3-21g 

tmpdir/M1_conf_280_0.gjf 

0 1
C                  -0.54621460    0.16229190   -0.76547240 
H                  -0.92797810    1.33024820   -0.64192750 
H                   0.35117250   -0.16228290   -0.24763630 
H                  -1.20501470   -0.71777280   -0.80983080 
H                  -0.11518600    0.03027528    1.67590738 


