%nprocshared=2 
%mem=2GB 
# hf/3-21g 

tmpdir/M1_conf_168_0.gjf 

0 1
C                   0.11654460   -0.00487670   -0.14304910 
H                  -0.03624070    1.04822790   -0.03597140 
H                   1.08723660   -0.44688150    0.07801860 
H                  -0.95974020   -0.43563970    0.26135200 
H                   0.02770728   -0.00377813    1.45683750 


