%nprocshared=2 
%mem=2GB 
# hf/3-21g 

tmpdir/M1_conf_53_0.gjf 

0 1
C                  -0.13147450   -0.10441450    0.61870420 
H                  -0.04743160    0.88018960    0.40084250 
H                   0.61809280   -0.69004290    0.20647580 
H                  -1.18146700   -0.55517390    0.26307440 
H                  -0.02319612   -0.02062971    1.93775093 


