%nprocshared=2 
%mem=2GB 
# hf/3-21g 

tmpdir/M1_conf_175_0.gjf 

0 1
C                   0.02940980    0.02990520   -0.20917770 
H                   0.12360320    1.17591220   -0.15187310 
H                   0.94495900   -0.41424060   -0.06186030 
H                  -0.75117260   -0.65119060    0.19919070 
H                   0.00337546    0.00541888    1.44754912 


