%nprocshared=2 
%mem=2GB 
# hf/3-21g 

tmpdir/M1_conf_72_0.gjf 

0 1
C                  -0.07138150   -0.08386470    0.46909950 
H                   0.07345340    0.81323080    0.10881570 
H                   0.68158580   -0.71592960    0.35123820 
H                  -0.99562330   -0.70700190    0.50621120 
H                  -0.01148353   -0.01501712    1.86252488 


