%nprocshared=2 
%mem=2GB 
# hf/3-21g 

tmpdir/M1_conf_290_0.gjf 

0 1
C                  -0.53466090    0.13063410   -0.78440770 
H                  -1.09557120    1.25763590   -0.66112280 
H                   0.17149290    0.05142650    0.04796050 
H                  -1.39333300   -0.54683630   -0.79468990 
H                  -0.10652437    0.01830930    1.69133922 


