%nprocshared=2 
%mem=2GB 
# hf/3-21g 

tmpdir/M1_conf_223_0.gjf 

0 1
C                  -0.31119440    0.13169810   -0.44669750 
H                  -0.50362100    1.20715860   -0.25040810 
H                   0.47899300   -0.18515100    0.07136470 
H                  -1.07763200   -0.46790010   -0.49144410 
H                  -0.06811505    0.02695479    1.58237704 


