%nprocshared=2 
%mem=2GB 
# hf/3-21g 

tmpdir/M1_conf_157_0.gjf 

0 1
C                   0.16132790   -0.01394200   -0.04160500 
H                   0.28314580    1.13218850    0.05027020 
H                   1.04961760   -0.57874000   -0.06404340 
H                  -0.72296760   -0.76327310   -0.31611920 
H                   0.03482549   -0.00069225    1.49152698 


