%nprocshared=2 
%mem=2GB 
# hf/3-21g 

tmpdir/M1_conf_114_0.gjf 

0 1
C                   0.12999310   -0.08838440    0.38426670 
H                   0.23789440    0.92359160    0.17084590 
H                   1.03010450   -0.74268840    0.19761150 
H                  -0.70993430   -0.65407250    0.29064340 
H                   0.02732152   -0.01775638    1.67838891 


