%nprocshared=2 
%mem=2GB 
# hf/3-21g 

tmpdir/M1_conf_253_0.gjf 

0 1
C                  -0.38909950    0.14727230   -0.78127370 
H                  -0.77824550    1.12414320   -0.60197360 
H                   0.41961770   -0.14809540   -0.26251540 
H                  -1.12142670   -0.46874250   -0.86527540 
H                  -0.07456998    0.02774622    1.58844448 


