%nprocshared=2 
%mem=2GB 
# hf/3-21g 

tmpdir/M1_conf_123_0.gjf 

0 1
C                   0.16646270   -0.12043420    0.23613250 
H                   0.15841290    0.84644030    0.13325620 
H                   1.12770780   -0.60073890    0.22047400 
H                  -0.70657690   -0.44320520   -0.17918750 
H                   0.03674688   -0.02634186    1.62671645 


