%nprocshared=2 
%mem=2GB 
# hf/3-21g 

tmpdir/M1_conf_68_0.gjf 

0 1
C                  -0.12299540   -0.10486500    0.47110130 
H                   0.17719590    0.97844860    0.19320220 
H                   0.82317450   -0.73724200    0.40408840 
H                  -0.96605120   -0.65140480    0.42933070 
H                  -0.02593854   -0.02135046    1.87500783 


