%nprocshared=2 
%mem=2GB 
# hf/3-21g 

tmpdir/M1_conf_188_0.gjf 

0 1
C                  -0.02567210    0.08572580   -0.38994960 
H                  -0.24754390    1.00110730    0.02008340 
H                   0.95315770   -0.40218470   -0.04349330 
H                  -1.11021520   -0.47161290   -0.27475790 
H                  -0.00179378    0.02083308    1.43022669 


