%nprocshared=2 
%mem=2GB 
# hf/3-21g 

tmpdir/M1_conf_153_0.gjf 

0 1
C                   0.16684160   -0.03356480   -0.01797790 
H                   0.28595090    1.00461250    0.03734170 
H                   1.09999570   -0.57546380   -0.08416520 
H                  -0.58322210   -0.60148290   -0.15128200 
H                   0.03385645   -0.00605926    1.50117845 


