%nprocshared=2 
%mem=2GB 
# hf/3-21g 

tmpdir/M1_conf_35_0.gjf 

0 1
C                  -0.16657560   -0.04207830    0.84311740 
H                  -0.24775200    0.88553490    0.29859610 
H                   0.59949050   -0.79808730    0.47001190 
H                  -1.25303300   -0.44197850    0.50682630 
H                  -0.03108034   -0.00949469    1.99229163 


