%nprocshared=2 
%mem=2GB 
# hf/3-21g 

tmpdir/M1_conf_249_0.gjf 

0 1
C                  -0.38596900    0.15140390   -0.74405760 
H                  -0.79093040    1.20143500   -0.43990040 
H                   0.57974060   -0.14482010   -0.25005360 
H                  -1.33637680   -0.55150450   -0.69803180 
H                  -0.07588948    0.02968389    1.58718351 


