%nprocshared=2 
%mem=2GB 
# hf/3-21g 

tmpdir/M1_conf_199_0.gjf 

0 1
C                  -0.14682250    0.08986180   -0.47520110 
H                  -0.15675020    1.11043830   -0.38824870 
H                   0.77193600   -0.34427210    0.07808000 
H                  -0.99204150   -0.63271070   -0.08304610 
H                  -0.03298937    0.01870570    1.45118416 


