%nprocshared=2 
%mem=2GB 
# hf/3-21g 

tmpdir/M1_conf_16_0.gjf 

0 1
C                  -0.24056860   -0.03848660    0.70220290 
H                  -0.35068720    0.98335150    0.35026780 
H                   0.52765960   -0.79571700    0.30180100 
H                  -1.35869150   -0.29889150    0.65167610 
H                  -0.04374381   -0.01030331    1.99206899 


