%nprocshared=2 
%mem=2GB 
# hf/3-21g 

tmpdir/M1_conf_2_0.gjf 

0 1
C                  -0.31259720   -0.00784360    0.63319680 
H                  -0.07512380    0.99100500    0.32505920 
H                   0.40534480   -0.64575020    0.37166010 
H                  -1.37447790   -0.48970510    0.66373210 
H                  -0.06071456   -0.00285612    1.98493903 


