%nprocshared=2 
%mem=2GB 
# hf/3-21g 

tmpdir/M1_conf_167_0.gjf 

0 1
C                   0.12838040   -0.01244530   -0.13382020 
H                  -0.04846090    1.09383830   -0.01530770 
H                   1.07614940   -0.45051080    0.07462960 
H                  -0.96543050   -0.43339280    0.22318440 
H                   0.03105927   -0.00590562    1.45913157 


