%nprocshared=2 
%mem=2GB 
# hf/3-21g 

tmpdir/M1_conf_178_0.gjf 

0 1
C                   0.00765860    0.06449510   -0.24727580 
H                   0.09282990    1.09030120   -0.14882940 
H                   0.99312990   -0.45467140   -0.14553940 
H                  -0.84765370   -0.74827000    0.09440560 
H                  -0.00115897    0.01664625    1.44323750 


