%nprocshared=2 
%mem=2GB 
# hf/3-21g 

tmpdir/M1_conf_158_0.gjf 

0 1
C                   0.15938680   -0.00661880   -0.04835080 
H                   0.25389760    1.08755160    0.04533710 
H                   1.05658830   -0.57829280   -0.04985750 
H                  -0.75312880   -0.75813970   -0.31556950 
H                   0.03490194    0.00141530    1.48882741 


