%nprocshared=2 
%mem=2GB 
# hf/3-21g 

tmpdir/M1_conf_156_0.gjf 

0 1
C                   0.16160130   -0.02138480   -0.03547000 
H                   0.30171900    1.14724070    0.05178650 
H                   1.05066020   -0.57891890   -0.07510810 
H                  -0.67512920   -0.73859470   -0.29556510 
H                   0.03416852   -0.00287655    1.49402132 


