%nprocshared=2 
%mem=2GB 
# hf/3-21g 

tmpdir/M1_conf_217_0.gjf 

0 1
C                  -0.27811520    0.16767310   -0.46107010 
H                  -0.42034930    1.11617810   -0.09554280 
H                   0.57605320   -0.33862240    0.13944650 
H                  -1.12651330   -0.72743890   -0.32899300 
H                  -0.06167130    0.04120614    1.54767779 


