%nprocshared=2 
%mem=2GB 
# hf/3-21g 

tmpdir/M1_conf_291_0.gjf 

0 1
C                  -0.53935640    0.12556810   -0.78596730 
H                  -1.08978890    1.24923780   -0.70413990 
H                   0.16307260    0.05110200    0.01970450 
H                  -1.35811820   -0.50913190   -0.78519080 
H                  -0.10777623    0.01646050    1.69270392 


