%nprocshared=2 
%mem=2GB 
# hf/3-21g 

tmpdir/M1_conf_263_0.gjf 

0 1
C                  -0.42843980    0.11392260   -0.85552710 
H                  -0.69033290    1.14065020   -0.79781950 
H                   0.25105940   -0.04235400   -0.10805340 
H                  -1.16571080   -0.47659170   -0.60267260 
H                  -0.08260316    0.01471551    1.59566832 


