%nprocshared=2 
%mem=2GB 
# hf/3-21g 

tmpdir/M1_conf_286_0.gjf 

0 1
C                  -0.54312070    0.16753910   -0.77362240 
H                  -0.94361850    1.04475500   -0.59375720 
H                   0.20369880    0.00099070    0.02743980 
H                  -1.35361470   -0.63354030   -0.82107150 
H                  -0.11127729    0.03168839    1.68695187 


