%nprocshared=2 
%mem=2GB 
# hf/3-21g 

tmpdir/M1_conf_67_0.gjf 

0 1
C                  -0.12735320   -0.10722800    0.47569740 
H                   0.16760090    1.00104690    0.21222650 
H                   0.86342490   -0.75005200    0.40563160 
H                  -1.02561570   -0.64769700    0.39125190 
H                  -0.02657595   -0.02185337    1.87909483 


