%nprocshared=2 
%mem=2GB 
# hf/3-21g 

tmpdir/M1_conf_207_0.gjf 

0 1
C                  -0.20469540    0.09335730   -0.45436980 
H                  -0.37529320    1.11150170   -0.37407860 
H                   0.85042060   -0.23654090   -0.22830810 
H                  -1.28230350   -0.44213760   -0.18431670 
H                  -0.04517929    0.01735708    1.49958174 


