%nprocshared=2 
%mem=2GB 
# hf/3-21g 

tmpdir/M1_conf_234_0.gjf 

0 1
C                  -0.37626240    0.12976230   -0.52441310 
H                  -0.55101600    1.14756130   -0.62521590 
H                   0.49198270   -0.16611630   -0.07598010 
H                  -1.21208810   -0.47682280   -0.27446420 
H                  -0.08247514    0.02419196    1.60541076 


