%nprocshared=2 
%mem=2GB 
# hf/3-21g 

tmpdir/M1_conf_95_0.gjf 

0 1
C                   0.00618990   -0.10984440    0.59865190 
H                   0.14965570    1.01493880    0.35575540 
H                   0.99217340   -0.73043990    0.45625240 
H                  -0.83460300   -0.62233910    0.22749640 
H                   0.00312841   -0.02402649    1.78586790 


