%nprocshared=2 
%mem=2GB 
# hf/3-21g 

tmpdir/M1_conf_256_0.gjf 

0 1
C                  -0.39080240    0.16131480   -0.81574540 
H                  -0.71325270    1.10315300   -0.72934440 
H                   0.42573150   -0.19181750   -0.12039590 
H                  -1.22759710   -0.66074820   -0.87085790 
H                  -0.07338770    0.03242414    1.58665909 


