%nprocshared=2 
%mem=2GB 
# hf/3-21g 

tmpdir/M1_conf_146_0.gjf 

0 1
C                   0.21881170   -0.08244830    0.02476200 
H                   0.10734870    1.11643060   -0.00585490 
H                   1.17363700   -0.55823130    0.00545180 
H                  -0.79531350   -0.47882750    0.21304910 
H                   0.04853234   -0.02154075    1.51990124 


