%nprocshared=2 
%mem=2GB 
# hf/3-21g 

tmpdir/M1_conf_245_0.gjf 

0 1
C                  -0.40369810    0.15535750   -0.69227490 
H                  -0.61984720    1.08427140   -0.41503050 
H                   0.51632410   -0.12489640   -0.20088650 
H                  -1.26450270   -0.54443020   -0.46003310 
H                  -0.08470822    0.03162631    1.59056026 


