%nprocshared=2 
%mem=2GB 
# hf/3-21g 

tmpdir/M1_conf_142_0.gjf 

0 1
C                   0.21450660   -0.07270360    0.04940650 
H                   0.14429610    0.87303960   -0.03347380 
H                   1.14744970   -0.58943550    0.05986150 
H                  -0.68884340   -0.48583700    0.27132630 
H                   0.04622543   -0.01684124    1.53369710 


