%nprocshared=2 
%mem=2GB 
# hf/3-21g 

tmpdir/M1_conf_21_0.gjf 

0 1
C                  -0.23477820   -0.06362290    0.74117240 
H                  -0.16936900    1.00846480    0.56585410 
H                   0.48997570   -0.64806940    0.38873460 
H                  -1.26227540   -0.38454080    0.66112600 
H                  -0.04544443   -0.01628412    1.98792540 


