%nprocshared=2 
%mem=2GB 
# hf/3-21g 

tmpdir/M1_conf_28_0.gjf 

0 1
C                  -0.24671790   -0.06096830    0.82248460 
H                   0.11321590    0.98829220    0.54231290 
H                   0.60191790   -0.66250390    0.31193670 
H                  -1.08632560   -0.51774070    0.60529720 
H                  -0.05473992   -0.01402125    1.99492123 


