%nprocshared=2 
%mem=2GB 
# hf/3-21g 

tmpdir/M1_conf_161_0.gjf 

0 1
C                   0.14400090   -0.00251960   -0.07318540 
H                   0.12598260    0.96800370    0.02599070 
H                   1.07791740   -0.55374940    0.00232940 
H                  -0.71943360   -0.57777190   -0.19491020 
H                   0.03177686    0.00122344    1.47927594 


