%nprocshared=2 
%mem=2GB 
# hf/3-21g 

tmpdir/M1_conf_9_0.gjf 

0 1
C                  -0.30505190   -0.00777790    0.66760240 
H                  -0.07648820    0.96343610    0.10961510 
H                   0.41098160   -0.74152790    0.21011450 
H                  -1.13970820   -0.46194800    0.66748890 
H                  -0.06193580   -0.00237469    1.99628800 


