%nprocshared=2 
%mem=2GB 
# hf/3-21g 

tmpdir/M1_conf_235_0.gjf 

0 1
C                  -0.38345220    0.13900550   -0.54436370 
H                  -0.52705400    1.13249640   -0.60787780 
H                   0.51851050   -0.18537420   -0.05477390 
H                  -1.24771420   -0.54553760   -0.22236640 
H                  -0.08430452    0.02733258    1.60260943 


