%nprocshared=2 
%mem=2GB 
# hf/3-21g 

tmpdir/M1_conf_105_0.gjf 

0 1
C                   0.08466980   -0.08477580    0.56401120 
H                   0.11638260    0.85769050   -0.08092780 
H                   1.01058120   -0.72919890    0.24005770 
H                  -0.80951660   -0.52095280    0.23875420 
H                   0.01997301   -0.01913828    1.74805697 


