%nprocshared=2 
%mem=2GB 
# hf/3-21g 

tmpdir/M1_conf_294_0.gjf 

0 1
C                  -0.55870670    0.13687240   -0.79581100 
H                  -0.95968600    1.07105320   -0.86059560 
H                   0.19660100    0.02073410   -0.07194750 
H                  -1.34135180   -0.53672810   -0.76018600 
H                  -0.11344644    0.02038516    1.69463865 


