%nprocshared=2 
%mem=2GB 
# hf/3-21g 

tmpdir/M1_conf_214_0.gjf 

0 1
C                  -0.25816390    0.13504140   -0.45620930 
H                  -0.45141980    1.15109810   -0.10095730 
H                   0.56497660   -0.28146730   -0.02202230 
H                  -1.05035470   -0.54216960   -0.28925660 
H                  -0.05734107    0.03031817    1.53443836 


