%nprocshared=2 
%mem=2GB 
# hf/3-21g 

tmpdir/M1_conf_275_0.gjf 

0 1
C                  -0.52881270    0.16058200   -0.78097980 
H                  -0.81334240    1.06528910   -0.73803140 
H                   0.42751370   -0.10923280   -0.40159250 
H                  -1.27743610   -0.62610460   -0.71960240 
H                  -0.11153992    0.03008406    1.65745573 


