%nprocshared=2 
%mem=2GB 
# hf/3-21g 

tmpdir/M1_conf_274_0.gjf 

0 1
C                  -0.52155920    0.14639890   -0.78764160 
H                  -0.81821420    1.09038120   -0.74341530 
H                   0.41139570   -0.07736580   -0.40998720 
H                  -1.26287320   -0.55080860   -0.69087550 
H                  -0.10949055    0.02511696    1.65236608 


