%nprocshared=2 
%mem=2GB 
# hf/3-21g 

tmpdir/M1_conf_76_0.gjf 

0 1
C                  -0.04261130   -0.09533940    0.50033050 
H                  -0.08818220    0.96507050   -0.06762210 
H                   0.84105620   -0.85864770    0.23784370 
H                  -1.00973400   -0.56766450    0.46846140 
H                  -0.00490889   -0.01948364    1.85836944 


