%nprocshared=2 
%mem=2GB 
# hf/3-21g 

tmpdir/M1_conf_201_0.gjf 

0 1
C                  -0.17220210    0.07457410   -0.46455310 
H                  -0.18365320    1.15348620   -0.45617510 
H                   0.74660740   -0.29124280   -0.03155340 
H                  -0.92659220   -0.50315960   -0.15012280 
H                  -0.03988576    0.01259243    1.46516126 


