%nprocshared=2 
%mem=2GB 
# hf/3-21g 

tmpdir/M1_conf_215_0.gjf 

0 1
C                  -0.26400490    0.14964630   -0.45844390 
H                  -0.43736970    1.12993000   -0.09332310 
H                   0.56616920   -0.30633980    0.03962790 
H                  -1.08832890   -0.62753980   -0.29704590 
H                  -0.05848730    0.03527332    1.53864441 


