%nprocshared=2 
%mem=2GB 
# hf/3-21g 

tmpdir/M1_conf_136_0.gjf 

0 1
C                   0.19827490   -0.08405660    0.09584250 
H                   0.29039910    1.09783450   -0.10850290 
H                   1.12667810   -0.69175630    0.08037250 
H                  -0.67721680   -0.71511740    0.07516790 
H                   0.04156670   -0.01802155    1.56206549 


