%nprocshared=2 
%mem=2GB 
# hf/3-21g 

tmpdir/M1_conf_40_0.gjf 

0 1
C                  -0.15134580   -0.05831760    0.78158670 
H                  -0.23905720    0.90831680    0.27337620 
H                   0.57757550   -0.73099490    0.52082670 
H                  -1.09128460   -0.40172910    0.74973560 
H                  -0.02949125   -0.01488877    1.97155449 


