%nprocshared=2 
%mem=2GB 
# hf/3-21g 

tmpdir/M1_conf_192_0.gjf 

0 1
C                  -0.06826710    0.07228550   -0.43720150 
H                  -0.25028990    1.08415690   -0.02545800 
H                   0.74195460   -0.34627850    0.04994830 
H                  -0.85946210   -0.41362570   -0.22392920 
H                  -0.01254875    0.01473781    1.43096649 


