%nprocshared=2 
%mem=2GB 
# hf/3-21g 

tmpdir/M1_conf_82_0.gjf 

0 1
C                   0.00236000   -0.10941390    0.53298200 
H                  -0.08081740    0.75281690    0.10276720 
H                   0.75737240   -0.65528290    0.19145210 
H                  -1.04044550   -0.45799400    0.34533130 
H                   0.00689436   -0.02348918    1.83956605 


