%nprocshared=2 
%mem=2GB 
# hf/3-21g 

tmpdir/M1_conf_7_0.gjf 

0 1
C                  -0.31612250    0.00550190    0.65756070 
H                  -0.02054240    0.94328150    0.14017560 
H                   0.44862310   -0.75923580    0.20561060 
H                  -1.20340590   -0.54029460    0.68244740 
H                  -0.06463976    0.00196277    1.99453193 


