%nprocshared=2 
%mem=2GB 
# hf/3-21g 

tmpdir/M1_conf_173_0.gjf 

0 1
C                   0.04205380    0.01129050   -0.18399990 
H                   0.09255860    1.11916400   -0.13086060 
H                   0.96957670   -0.40698400   -0.00176500 
H                  -0.66509280   -0.49480550    0.20968040 
H                   0.00584915   -0.00041747    1.45125486 


