%nprocshared=2 
%mem=2GB 
# hf/3-21g 

tmpdir/M1_conf_198_0.gjf 

0 1
C                  -0.13269940    0.09275820   -0.47737970 
H                  -0.15584510    1.11024330   -0.33730030 
H                   0.76292700   -0.35673070    0.11042610 
H                  -1.00918090   -0.66641220   -0.06541670 
H                  -0.02903439    0.02007048    1.44538356 


