%nprocshared=2 
%mem=2GB 
# hf/3-21g 

tmpdir/M1_conf_37_0.gjf 

0 1
C                  -0.16231910   -0.04758470    0.82684980 
H                  -0.30154140    0.92012550    0.25063820 
H                   0.64005440   -0.83443090    0.49149860 
H                  -1.15925360   -0.37956400    0.59270830 
H                  -0.03111143   -0.01167083    1.98612317 


