%nprocshared=2 
%mem=2GB 
# hf/3-21g 

tmpdir/M1_conf_144_0.gjf 

0 1
C                   0.21026490   -0.08363060    0.03815190 
H                   0.10627710    1.00839980   -0.01791890 
H                   1.18294540   -0.57927420    0.03610140 
H                  -0.65991380   -0.42058800    0.24753000 
H                   0.04495989   -0.02139496    1.52682114 


