%nprocshared=2 
%mem=2GB 
# hf/3-21g 

tmpdir/M1_conf_270_0.gjf 

0 1
C                  -0.48055990    0.10611460   -0.83112930 
H                  -0.84290830    1.26895140   -0.74208590 
H                   0.45680350    0.00666960   -0.26937430 
H                  -1.39200480   -0.47421710   -0.53817890 
H                  -0.09710649    0.01113892    1.62558225 


