%nprocshared=2 
%mem=2GB 
# hf/3-21g 

tmpdir/M1_conf_87_0.gjf 

0 1
C                  -0.01846300   -0.12356660    0.57175840 
H                   0.14803740    1.05669430    0.25754450 
H                   0.92824140   -0.71454840    0.17581490 
H                  -0.90603350   -0.60924270    0.32458910 
H                  -0.00266176   -0.02728844    1.82205194 


