%nprocshared=2 
%mem=2GB 
# hf/3-21g 

tmpdir/M1_conf_70_0.gjf 

0 1
C                  -0.09851910   -0.09481640    0.46579180 
H                   0.14511380    0.87175370    0.16188320 
H                   0.70429900   -0.69240780    0.38953420 
H                  -0.93795820   -0.68122760    0.48326780 
H                  -0.01916449   -0.01840675    1.86763111 


