%nprocshared=2 
%mem=2GB 
# hf/3-21g 

tmpdir/M1_conf_122_0.gjf 

0 1
C                   0.17144260   -0.11783980    0.25017070 
H                   0.15198040    0.81651850    0.16269480 
H                   1.08220990   -0.58778850    0.23286830 
H                  -0.76075390   -0.45965470   -0.14406450 
H                   0.03891990   -0.02547777    1.63165441 


