%nprocshared=2 
%mem=2GB 
# hf/3-21g 

tmpdir/M1_conf_93_0.gjf 

0 1
C                   0.00439620   -0.10026530    0.58933030 
H                   0.17647820    0.85588240    0.44022450 
H                   0.88322540   -0.66809290    0.41581730 
H                  -0.85162260   -0.69181070    0.25209510 
H                   0.00349228   -0.01970679    1.79217354 


