%nprocshared=2 
%mem=2GB 
# hf/3-21g 

tmpdir/M1_conf_12_0.gjf 

0 1
C                  -0.25586150   -0.01851900    0.67632130 
H                  -0.22339000    0.91469560    0.18494730 
H                   0.36378630   -0.68353200    0.27832870 
H                  -1.36808000   -0.42757340    0.65030870 
H                  -0.04641143   -0.00522550    1.99414842 


