%nprocshared=2 
%mem=2GB 
# hf/3-21g 

tmpdir/M1_conf_19_0.gjf 

0 1
C                  -0.24740410   -0.06152620    0.72442350 
H                  -0.28430940    1.05264820    0.48050240 
H                   0.53624240   -0.74243430    0.35347250 
H                  -1.17036990   -0.27803150    0.66682530 
H                  -0.04839665   -0.01667154    1.98937743 


