%nprocshared=2 
%mem=2GB 
# hf/3-21g 

tmpdir/M1_conf_4_0.gjf 

0 1
C                  -0.30956540    0.00915090    0.63870850 
H                  -0.02969650    0.91209000    0.25684880 
H                   0.41933110   -0.68251140    0.29731930 
H                  -1.38471410   -0.58924150    0.68649500 
H                  -0.06061318    0.00307740    1.98814337 


