%nprocshared=2 
%mem=2GB 
# hf/3-21g 

tmpdir/M1_conf_272_0.gjf 

0 1
C                  -0.50225820    0.11793040   -0.80668390 
H                  -0.84652190    1.21458890   -0.74286430 
H                   0.41422020   -0.02452800   -0.37148890 
H                  -1.28937170   -0.46282660   -0.62083690 
H                  -0.10371032    0.01515477    1.64001828 


