%nprocshared=2 
%mem=2GB 
# hf/3-21g 

tmpdir/M1_conf_61_0.gjf 

0 1
C                  -0.11632680   -0.12687920    0.52159080 
H                  -0.10872930    0.86702700    0.32339290 
H                   0.67552560   -0.66084560    0.33942890 
H                  -1.09608470   -0.43670900    0.19135770 
H                  -0.01855808   -0.02710471    1.90552388 


