%nprocshared=2 
%mem=2GB 
# hf/3-21g 

tmpdir/M1_conf_297_0.gjf 

0 1
C                  -0.57254520    0.14310860   -0.81463100 
H                  -0.87167310    1.10712050   -1.02620370 
H                   0.29541570   -0.03247370   -0.15602740 
H                  -1.38880690   -0.68690320   -0.73875520 
H                  -0.11721205    0.02252892    1.69290969 


