%nprocshared=2 
%mem=2GB 
# hf/3-21g 

tmpdir/M1_conf_0_0.gjf 

0 1
C                  -0.32584060   -0.02412630    0.63573320 
H                  -0.15076020    1.07388730    0.39411890 
H                   0.47133040   -0.69226510    0.40506340 
H                  -1.27992630   -0.32619810    0.62342360 
H                  -0.06465831   -0.00841103    1.98364791 


