%nprocshared=2 
%mem=2GB 
# hf/3-21g 

tmpdir/M1_conf_184_0.gjf 

0 1
C                  -0.01057890    0.05941050   -0.32925650 
H                  -0.14942400    1.14181440    0.01249670 
H                   0.88383070   -0.37480360   -0.19316430 
H                  -0.90217080   -0.47091030   -0.24377340 
H                  -0.00091049    0.01282945    1.43573628 


