%nprocshared=2 
%mem=2GB 
# hf/3-21g 

tmpdir/M1_conf_124_0.gjf 

0 1
C                   0.16290890   -0.12499750    0.22364230 
H                   0.17203550    0.92582530    0.09810050 
H                   1.16638970   -0.61611510    0.20510340 
H                  -0.66936720   -0.44703550   -0.21492690 
H                   0.03505305   -0.02797448    1.62220990 


