%nprocshared=2 
%mem=2GB 
# hf/3-21g 

tmpdir/M1_conf_98_0.gjf 

0 1
C                   0.03407930   -0.11496490    0.60420760 
H                   0.07970350    1.04116750    0.20279920 
H                   0.98004430   -0.70431890    0.48165100 
H                  -0.85720250   -0.51878730    0.17697240 
H                   0.01072597   -0.02747909    1.77653594 


