%nprocshared=2 
%mem=2GB 
# hf/3-21g 

tmpdir/M1_conf_65_0.gjf 

0 1
C                  -0.12357150   -0.10993410    0.48764660 
H                   0.09920570    0.96222920    0.25896120 
H                   0.85682730   -0.73292370    0.39939270 
H                  -1.14671670   -0.62209460    0.30445770 
H                  -0.02357740   -0.02214304    1.88763714 


