%nprocshared=2 
%mem=2GB 
# hf/3-21g 

tmpdir/M1_conf_231_0.gjf 

0 1
C                  -0.35501250    0.11446350   -0.47905290 
H                  -0.61780480    1.21003380   -0.62614020 
H                   0.55870840   -0.14908850   -0.05981590 
H                  -1.22690970   -0.36992450   -0.42660890 
H                  -0.07718232    0.01922433    1.60832893 


