%nprocshared=2 
%mem=2GB 
# hf/3-21g 

tmpdir/M1_conf_1_0.gjf 

0 1
C                  -0.31882270   -0.01695840    0.63364400 
H                  -0.10963430    1.03946550    0.35852790 
H                   0.43103710   -0.66146930    0.39348560 
H                  -1.32990990   -0.41033870    0.64521350 
H                  -0.06251290   -0.00599201    1.98410737 


