%nprocshared=2 
%mem=2GB 
# hf/3-21g 

tmpdir/M1_conf_55_0.gjf 

0 1
C                  -0.13169370   -0.11664840    0.60022530 
H                  -0.12716910    0.96741810    0.36629260 
H                   0.72316500   -0.77443020    0.17683550 
H                  -1.16756950   -0.48061910    0.17605270 
H                  -0.02297932   -0.02399308    1.93355310 


