%nprocshared=2 
%mem=2GB 
# hf/3-21g 

tmpdir/M1_conf_238_0.gjf 

0 1
C                  -0.40350350    0.14354050   -0.59965550 
H                  -0.50072910    1.23259520   -0.52743660 
H                   0.54811340   -0.21034700   -0.02886320 
H                  -1.24374490   -0.63199490   -0.15917640 
H                  -0.08931205    0.02849286    1.59556027 


