%nprocshared=2 
%mem=2GB 
# hf/3-21g 

tmpdir/M1_conf_182_0.gjf 

0 1
C                  -0.01535120    0.05751620   -0.29831520 
H                  -0.05949710    1.11743910   -0.04576630 
H                   0.91117390   -0.40472780   -0.21087680 
H                  -0.76276700   -0.49903680   -0.16925160 
H                  -0.00486966    0.01282632    1.43919032 


