%nprocshared=2 
%mem=2GB 
# hf/3-21g 

tmpdir/M1_conf_86_0.gjf 

0 1
C                  -0.01665430   -0.12256990    0.56702800 
H                   0.10607410    1.03413720    0.21259530 
H                   0.93488150   -0.72372490    0.15280430 
H                  -0.94533890   -0.57868000    0.32661160 
H                  -0.00166639   -0.02710938    1.82681686 


