%nprocshared=2 
%mem=2GB 
# hf/3-21g 

tmpdir/M1_conf_181_0.gjf 

0 1
C                  -0.01262430    0.06306560   -0.28439470 
H                  -0.01379340    1.08523570   -0.08040800 
H                   0.94492360   -0.42776530   -0.20391390 
H                  -0.77253510   -0.56740400   -0.10824480 
H                  -0.00502897    0.01513252    1.44047570 


