%nprocshared=2 
%mem=2GB 
# hf/3-21g 

tmpdir/M1_conf_186_0.gjf 

0 1
C                  -0.01175710    0.07382830   -0.36088010 
H                  -0.21510460    1.08536210    0.03386110 
H                   0.93221920   -0.38791460   -0.12777530 
H                  -1.07354710   -0.48754410   -0.27340670 
H                   0.00092184    0.01727687    1.43234808 


