%nprocshared=2 
%mem=2GB 
# hf/3-21g 

tmpdir/M1_conf_219_0.gjf 

0 1
C                  -0.29236230    0.16207720   -0.45947150 
H                  -0.43154020    1.17109720   -0.11082590 
H                   0.54577350   -0.31785270    0.16769630 
H                  -1.09097250   -0.69143010   -0.37976620 
H                  -0.06493155    0.03872675    1.55817812 


