%nprocshared=2 
%mem=2GB 
# hf/3-21g 

tmpdir/M1_conf_179_0.gjf 

0 1
C                   0.00008380    0.06938780   -0.25930810 
H                   0.06371880    1.06132910   -0.13464280 
H                   0.99201430   -0.45576550   -0.16946710 
H                  -0.83668300   -0.71297140    0.03202290 
H                  -0.00274901    0.01804757    1.44232917 


