%nprocshared=2 
%mem=2GB 
# hf/3-21g 

tmpdir/M1_conf_133_0.gjf 

0 1
C                   0.18347800   -0.07860910    0.12316350 
H                   0.30185640    0.88012830   -0.05934910 
H                   1.09525950   -0.67808520    0.08067540 
H                  -0.57157200   -0.68333520   -0.12759590 
H                   0.03766824   -0.01445249    1.57785348 


