%nprocshared=2 
%mem=2GB 
# hf/3-21g 

tmpdir/M1_conf_81_0.gjf 

0 1
C                   0.00084930   -0.10945460    0.52591000 
H                  -0.11444990    0.75531310    0.06216900 
H                   0.73013920   -0.66000110    0.20696780 
H                  -1.02676960   -0.43912840    0.36061800 
H                   0.00693097   -0.02376834    1.84277941 


