%nprocshared=2 
%mem=2GB 
# hf/3-21g 

tmpdir/M1_conf_218_0.gjf 

0 1
C                  -0.28533090    0.16769460   -0.46090340 
H                  -0.42246160    1.13763380   -0.10073270 
H                   0.56693180   -0.33551360    0.16372560 
H                  -1.11741310   -0.72680760   -0.35262000 
H                  -0.06333116    0.04097077    1.55270733 


