%nprocshared=2 
%mem=2GB 
# hf/3-21g 

tmpdir/M1_conf_83_0.gjf 

0 1
C                  -0.00058890   -0.11152150    0.54226950 
H                  -0.03995130    0.80681400    0.12863980 
H                   0.81248450   -0.67413240    0.16968570 
H                  -1.03910550   -0.48516850    0.33505540 
H                   0.00532521   -0.02395681    1.83690191 


