%nprocshared=2 
%mem=2GB 
# hf/3-21g 

tmpdir/M1_conf_265_0.gjf 

0 1
C                  -0.44317460    0.11759850   -0.85998150 
H                  -0.69400420    1.04471870   -0.78279720 
H                   0.33103760    0.00154370   -0.10625010 
H                  -1.29235010   -0.47294050   -0.52306510 
H                  -0.08667490    0.01578252    1.60033893 


