%nprocshared=2 
%mem=2GB 
# hf/3-21g 

tmpdir/M1_conf_269_0.gjf 

0 1
C                  -0.47097210    0.10568430   -0.84233690 
H                  -0.82307650    1.24957050   -0.74510840 
H                   0.46602300    0.01559280   -0.21388450 
H                  -1.42657910   -0.48666980   -0.50607170 
H                  -0.09426176    0.01108788    1.61866920 


