%nprocshared=2 
%mem=2GB 
# hf/3-21g 

tmpdir/M1_conf_102_0.gjf 

0 1
C                   0.07755320   -0.08982650    0.58488790 
H                   0.04561950    0.72613260    0.08997620 
H                   0.89750030   -0.63552390    0.38709490 
H                  -0.86641130   -0.46021410    0.16331900 
H                   0.02152007   -0.02037857    1.76001012 


