%nprocshared=2 
%mem=2GB 
# hf/3-21g 

tmpdir/M1_conf_220_0.gjf 

0 1
C                  -0.29911300    0.15265220   -0.45673060 
H                  -0.44589370    1.20346540   -0.12957110 
H                   0.51612270   -0.28773680    0.15304170 
H                  -1.05387560   -0.62746910   -0.40880010 
H                  -0.06643939    0.03512777    1.56410090 


