%nprocshared=2 
%mem=2GB 
# hf/3-21g 

tmpdir/M1_conf_3_0.gjf 

0 1
C                  -0.30947520    0.00168330    0.63485410 
H                  -0.04874700    0.94302040    0.29222880 
H                   0.40364950   -0.65443210    0.33816950 
H                  -1.39487880   -0.55177300    0.67775550 
H                  -0.06007262    0.00045707    1.98628271 


