%nprocshared=2 
%mem=2GB 
# hf/3-21g 

tmpdir/M1_conf_260_0.gjf 

0 1
C                  -0.40256250    0.12886380   -0.84808400 
H                  -0.71735920    1.28555540   -0.79881430 
H                   0.30978180   -0.13955020   -0.06197600 
H                  -1.21038610   -0.64393190   -0.72488180 
H                  -0.07517999    0.02040660    1.58861890 


