%nprocshared=2 
%mem=2GB 
# hf/3-21g 

tmpdir/M1_conf_137_0.gjf 

0 1
C                   0.20787850   -0.08296260    0.08710320 
H                   0.27253000    1.11119770   -0.10981850 
H                   1.11661320   -0.67160080    0.08112210 
H                  -0.74077290   -0.72273400    0.13594310 
H                   0.04461858   -0.01817592    1.55681030 


