%nprocshared=2 
%mem=2GB 
# hf/3-21g 

tmpdir/M1_conf_24_0.gjf 

0 1
C                  -0.23344070   -0.05208310    0.77750990 
H                   0.01323850    0.92682160    0.63051330 
H                   0.56838590   -0.63472580    0.34134810 
H                  -1.34990290   -0.54637730    0.63688200 
H                  -0.04723599   -0.01098692    1.99025712 


