%nprocshared=2 
%mem=2GB 
# hf/3-21g 

tmpdir/M1_conf_15_0.gjf 

0 1
C                  -0.23848710   -0.03071360    0.69449940 
H                  -0.33723530    0.94406580    0.31057030 
H                   0.48766810   -0.77253250    0.29548860 
H                  -1.41512240   -0.33340820    0.64807750 
H                  -0.04229379   -0.00811286    1.99253581 


