%nprocshared=2 
%mem=2GB 
# hf/3-21g 

tmpdir/M1_conf_208_0.gjf 

0 1
C                  -0.21315330    0.09863350   -0.45456200 
H                  -0.40658950    1.10896860   -0.32943360 
H                   0.85546820   -0.24532080   -0.21954130 
H                  -1.28068910   -0.43186290   -0.19433170 
H                  -0.04717389    0.01894179    1.50462758 


