%nprocshared=2 
%mem=2GB 
# hf/3-21g 

tmpdir/M1_conf_89_0.gjf 

0 1
C                  -0.01122200   -0.11790370    0.57709890 
H                   0.19806750    0.98845130    0.35983290 
H                   0.85247700   -0.65946830    0.25961400 
H                  -0.86357250   -0.67158580    0.30851230 
H                  -0.00072527   -0.02514144    1.81116652 


