%nprocshared=2 
%mem=2GB 
# hf/3-21g 

tmpdir/M1_conf_251_0.gjf 

0 1
C                  -0.38529970    0.14325940   -0.76237480 
H                  -0.81641410    1.20271350   -0.50581220 
H                   0.48663520   -0.13863610   -0.28377340 
H                  -1.20272280   -0.47399870   -0.80228300 
H                  -0.07442397    0.02654244    1.58799067 


