%nprocshared=2 
%mem=2GB 
# hf/3-21g 

tmpdir/M1_conf_205_0.gjf 

0 1
C                  -0.19143040    0.07789700   -0.45355680 
H                  -0.30733470    1.15319250   -0.44314330 
H                   0.77579540   -0.21878550   -0.21788300 
H                  -1.16899950   -0.43707320   -0.18332360 
H                  -0.04251629    0.01246719    1.48962235 


