%nprocshared=2 
%mem=2GB 
# hf/3-21g 

tmpdir/M1_conf_96_0.gjf 

0 1
C                   0.01177070   -0.11386120    0.60203110 
H                   0.12832840    1.06332790    0.30189460 
H                   1.01498470   -0.73948730    0.47045340 
H                  -0.83363590   -0.58343510    0.21290510 
H                   0.00445952   -0.02598340    1.78288192 


