%nprocshared=2 
%mem=2GB 
# hf/3-21g 

tmpdir/M1_conf_187_0.gjf 

0 1
C                  -0.01745320    0.08100820   -0.37583570 
H                  -0.23496480    1.03992880    0.02972620 
H                   0.95280980   -0.39799540   -0.08520100 
H                  -1.11168520   -0.48438030   -0.27692930 
H                   0.00001477    0.01949142    1.43109085 


