%nprocshared=2 
%mem=2GB 
# hf/3-21g 

tmpdir/M1_conf_200_0.gjf 

0 1
C                  -0.16030880    0.08303980   -0.47059630 
H                  -0.16613130    1.12808590   -0.42819420 
H                   0.76519570   -0.32143610    0.02895870 
H                  -0.95958240   -0.57384600   -0.11360450 
H                  -0.03671950    0.01594158    1.45789846 


