%nprocshared=2 
%mem=2GB 
# hf/3-21g 

tmpdir/M1_conf_129_0.gjf 

0 1
C                   0.18464440   -0.10731120    0.17168050 
H                   0.27456280    1.01847500   -0.02453410 
H                   1.08055150   -0.61225950    0.11930120 
H                  -0.70509030   -0.66749540   -0.34320760 
H                   0.04021568   -0.02279461    1.60089845 


