%nprocshared=2 
%mem=2GB 
# hf/3-21g 

tmpdir/M1_conf_125_0.gjf 

0 1
C                   0.16297970   -0.12794880    0.21277350 
H                   0.19159090    1.00942340    0.06285690 
H                   1.18624090   -0.62729700    0.18784710 
H                  -0.66173680   -0.47480490   -0.25618210 
H                   0.03461565   -0.02910481    1.61813398 


