%nprocshared=2 
%mem=2GB 
# hf/3-21g 

tmpdir/M1_conf_169_0.gjf 

0 1
C                   0.10151630    0.00237640   -0.15140100 
H                  -0.01512940    1.00326280   -0.05831180 
H                   1.08782610   -0.44223430    0.07556570 
H                  -0.91689200   -0.43512030    0.27856470 
H                   0.02324212   -0.00173463    1.45512946 


