%nprocshared=2 
%mem=2GB 
# hf/3-21g 

tmpdir/M1_conf_145_0.gjf 

0 1
C                   0.21418610   -0.08506300    0.03154590 
H                   0.10136120    1.07714550   -0.01197580 
H                   1.18322470   -0.56956340    0.02132410 
H                  -0.72059410   -0.44028810    0.23422750 
H                   0.04658557   -0.02219658    1.52330392 


