%nprocshared=2 
%mem=2GB 
# hf/3-21g 

tmpdir/M1_conf_259_0.gjf 

0 1
C                  -0.39679930    0.13871240   -0.84314270 
H                  -0.72002750    1.27317020   -0.79004030 
H                   0.35325140   -0.16715450   -0.05233590 
H                  -1.24068680   -0.69084520   -0.76856370 
H                  -0.07372845    0.02403397    1.58706486 


