%nprocshared=2 
%mem=2GB 
# hf/3-21g 

tmpdir/M1_conf_45_0.gjf 

0 1
C                  -0.15737480   -0.06252070    0.71051880 
H                   0.03965680    0.94339310    0.36143050 
H                   0.70599670   -0.73636090    0.34304580 
H                  -1.18474970   -0.61932430    0.81421830 
H                  -0.03372186   -0.01279959    1.95399919 


