%nprocshared=2 
%mem=2GB 
# hf/3-21g 

tmpdir/M1_conf_224_0.gjf 

0 1
C                  -0.31235030    0.13330080   -0.44567340 
H                  -0.52337270    1.17672420   -0.30689030 
H                   0.51908950   -0.17073790    0.06118860 
H                  -1.17231160   -0.47285840   -0.51460070 
H                  -0.06767537    0.02730005    1.58757567 


