%nprocshared=2 
%mem=2GB 
# hf/3-21g 

tmpdir/M1_conf_90_0.gjf 

0 1
C                  -0.00415500   -0.11158200    0.57887160 
H                   0.20264750    0.91273220    0.40677310 
H                   0.81055540   -0.62952030    0.30980830 
H                  -0.85976380   -0.69718200    0.29482700 
H                   0.00148346   -0.02295902    1.80558377 


