%nprocshared=2 
%mem=2GB 
# hf/3-21g 

tmpdir/M1_conf_279_0.gjf 

0 1
C                  -0.54333420    0.16595840   -0.76692250 
H                  -0.91264030    1.31308100   -0.66360720 
H                   0.39458360   -0.17364450   -0.28393070 
H                  -1.24130830   -0.75353390   -0.80103150 
H                  -0.11465517    0.03166357    1.67289298 


