%nprocshared=2 
%mem=2GB 
# hf/3-21g 

tmpdir/M1_conf_195_0.gjf 

0 1
C                  -0.09326720    0.08010850   -0.46603880 
H                  -0.19620210    1.15676910   -0.15220990 
H                   0.67761080   -0.33902680    0.10049610 
H                  -0.93830550   -0.59070890   -0.10754790 
H                  -0.01821286    0.01655371    1.43473191 


