%nprocshared=2 
%mem=2GB 
# hf/3-21g 

tmpdir/M1_conf_226_0.gjf 

0 1
C                  -0.31883470    0.13711080   -0.44867550 
H                  -0.56306440    1.12830190   -0.42348630 
H                   0.63145180   -0.16868800    0.05534490 
H                  -1.34528190   -0.48519670   -0.53820900 
H                  -0.06831663    0.02822809    1.59605183 


