%nprocshared=2 
%mem=2GB 
# hf/3-21g 

tmpdir/M1_conf_110_0.gjf 

0 1
C                   0.12380520   -0.08002630    0.47187510 
H                   0.24848980    0.89843180   -0.01684010 
H                   0.88149940   -0.66902760    0.18565090 
H                  -0.78248010   -0.71343180    0.33960290 
H                   0.02795957   -0.01662054    1.71096514 


