%nprocshared=2 
%mem=2GB 
# hf/3-21g 

tmpdir/M1_ref_0.gjf 

0 1
C                  -1.20238400    0.00001300    0.00000000 
H                  -1.50281200   -0.27124700    0.99420100 
H                  -1.50240900    0.99696500   -0.26221700 
H                  -1.50295700   -0.72555500   -0.73198400 
H                   0.01499365   -0.00000437    0.00000000 


