%nprocshared=2 
%mem=2GB 
# hf/3-21g 

tmpdir/M2_conf_200_8.gjf 

0 1
H                   0.00000000    0.00000000    0.00000000 
C                   1.07360000    0.00000000    0.00000000 
Cl                  0.11424000    0.00000000    1.63062000 
H                   1.48437000   -0.89246000   -0.43239000 
H                   1.48462000    0.89249000   -0.43260000 


