%nprocshared=2 
%mem=2GB 
# hf/3-21g 

tmpdir/M2_conf_201_7.gjf 

0 1
H                   0.00000000    0.00000000    0.00000000 
C                   1.07360000    0.00000000    0.00000000 
H                   1.41710000    0.00000000    1.01717000 
H                   1.48437000    0.77836000   -0.61449000 
H                   1.41386000   -1.05183000   -0.50984000 


