%nprocshared=2 
%mem=2GB 
# hf/3-21g 

tmpdir/M2_conf_2_3.gjf 

0 1
C                   0.00000000    0.00000000    0.00000000 
Cl                  2.13690000    0.00000000    0.00000000 
H                  -0.30037000    0.00000000   -1.03052000 
H                  -0.30006000   -0.89271000    0.51541000 
H                  -0.30060000    0.89267000    0.51517000 


