%nprocshared=2 
%mem=2GB 
# hf/3-21g 

tmpdir/M2_conf_214_9.gjf 

0 1
H                   0.00000000    0.00000000    0.00000000 
C                   1.07360000    0.00000000    0.00000000 
Cl                  0.85517000    0.00000000    1.87925000 
H                   1.48403000    0.89252000   -0.43261000 
H                   1.48462000   -0.89256000   -0.43244000 


