%nprocshared=2 
%mem=2GB 
# hf/3-21g 

tmpdir/M2_conf_212_0.gjf 

0 1
C                   0.00000000    0.00000000    0.00000000 
H                   1.12500000    0.00000000    0.00000000 
H                  -0.41085000    0.00000000   -0.99188000 
H                  -0.41050000    0.77851000    0.61483000 
H                  -0.34066000   -1.05191000    0.50942000 


