%chk=1a-HCl-2e-MajorTS_cpcm.chk
%nprocshared=16
%mem=16GB
#p b3lyp/gen scrf=(cpcm,solvent=toluene) pop=hirshfeld geom=connectivity
empiricaldispersion=gd3bj

title card

0 1
 C                  2.31397500   -2.30083100    1.88744700
 C                  2.94586800   -2.69272400    3.07793593
 C                  3.99162900   -3.61411500    3.05703592
 C                  4.40552700   -4.16013300    1.84338403
 C                  2.76062300   -2.83605900    0.67215800
 C                  3.79702300   -3.76373600    0.65030700
 H                  5.21549700   -4.88681100    1.82965696
 H                  4.46651500   -3.88455500    3.99709797
 H                  2.27521500   -2.53388200   -0.24884100
 H                  4.12375100   -4.18301200   -0.29881799
 O                  2.56381900   -2.15608400    4.27931499
 C                  2.51801500   -0.71260200    4.24906206
 H                  3.48373700   -0.33493000    3.89154792
 H                  2.39097300   -0.40816300    5.29180193
 Cl                 1.34535400    3.29878700    3.33364606
 C                  0.66967500    2.95407400   -0.34697199
 N                  1.84695000    2.59098600    0.21924900
 H                  1.90270900    2.67919700    1.24231696
 N                 -0.33965900    3.10446800    0.54627198
 H                 -0.02080200    3.07279000    1.52386999
 C                 -1.53749000    3.92419800    0.35611099
 C                 -1.53850500    4.97519600    1.48331296
 H                 -1.44528000    4.42626100   -0.60817701
 C                 -4.11755800    3.85276100    0.63710701
 C                 -2.83527800    5.76924000    1.59579504
 H                 -1.35506500    4.46272500    2.43913507
 H                 -0.67561100    5.63441500    1.32796395
 C                 -4.00941800    4.81756400    1.81321001
 H                 -4.93014200    3.13042700    0.78740102
 H                 -4.38294200    4.42250000   -0.26103699
 H                 -2.75331200    6.48641200    2.42286897
 H                 -3.00334100    6.35988200    0.68148100
 H                 -4.95227800    5.36931000    1.92324305
 H                 -3.85841300    4.25824000    2.74999905
 C                  3.07231200    2.40782700   -0.53208399
 H                  3.09163900    3.15484900   -1.32840395
 C                  3.07862500    1.00664800   -1.14573598
 C                  4.33412300    2.65823100    0.35844001
 C                  5.58857100    2.42827800   -0.49977899
 H                  5.68009500    1.38401000   -0.82341301
 H                  5.58820000    3.06774900   -1.39207697
 H                  6.48420700    2.67377500    0.08429100
 C                  4.38742900    1.73828800    1.58959997
 H                  3.56148100    1.94221600    2.28131795
 H                  4.36053900    0.68057900    1.30757201
 H                  5.31871900    1.92859100    2.13964510
 C                  4.30006800    4.12740400    0.81375200
 H                  4.26624800    4.80603400   -0.04907900
 H                  3.43444500    4.33398400    1.45309901
 H                  5.20434000    4.35727100    1.39223194
 O                  2.81437400    0.01749200   -0.42860499
 C                  3.49628400   -0.53466000   -3.02633095
 C                  3.61922300    1.89801700   -3.43525004
 C                  3.76953100   -0.22379000   -4.52641821
 C                  3.26611100    1.20151100   -4.74473476
 H                  4.66808700    2.22421700   -3.42591906
 H                  2.96730300    2.74788600   -3.22147202
 H                  4.85132000   -0.26996800   -4.70913076
 H                  3.28900100   -0.96328300   -5.17392015
 H                  3.73044100    1.68940300   -5.60844898
 H                  2.17998300    1.21720500   -4.89453506
 N                  3.41214500    0.83790500   -2.43148494
 C                  4.67797400   -1.28927100   -2.40822911
 H                  4.48727000   -1.53923100   -1.36150301
 H                  4.88160900   -2.20926100   -2.96779895
 H                  5.57435900   -0.66108000   -2.46731997
 C                  2.15931900   -1.25993100   -2.86282110
 C                  2.10224500   -2.62748300   -2.70198107
 C                  0.94052900   -0.52763300   -2.91243601
 C                  0.86575900   -3.30960600   -2.55064106
 H                  3.01181500   -3.22130300   -2.66072893
 C                 -0.27422800   -1.15879800   -2.80845499
 H                  0.95954100    0.55574700   -2.99322295
 C                 -0.35290100   -2.56423700   -2.61704206
 H                 -1.19068500   -0.57121900   -2.84603500
 N                 -3.01134700    2.24941500   -0.84115797
 C                 -3.32752900    0.90644900   -0.81106502
 C                 -3.19736700    2.74057700   -2.14130497
 C                 -3.70711400    0.53096900   -2.10188699
 C                 -3.60698200    1.68990800   -2.92441297
 H                 -3.84020200    1.73785400   -3.98129797
 C                 -2.96616000    4.14671300   -2.58740711
 H                 -3.34201000    4.24502700   -3.61149096
 H                 -3.48631500    4.88978500   -1.97253895
 H                 -1.89773100    4.39216000   -2.59466410
 C                 -4.27157700   -0.73828000   -2.56077790
 O                 -4.55809200   -1.58237100   -1.54245198
 C                 -5.15805200   -2.85517500   -1.86187994
 H                 -6.19281200   -2.68157400   -2.18416095
 H                 -4.62200000   -3.30842500   -2.70368004
 C                 -5.08304800   -3.69810300   -0.60861498
 H                 -5.54749800   -4.67588900   -0.78668898
 H                 -4.04158100   -3.85269200   -0.30447400
 H                 -5.60659700   -3.20810000    0.22111399
 O                 -4.49087600   -1.01604700   -3.72866702
 C                 -3.24512000    0.02681800    0.37135100
 C                 -2.36752300   -1.03868200    0.33788800
 C                 -4.16107400    0.13259000    1.45379996
 C                 -2.40400200   -2.05703400    1.31791902
 H                 -1.65542200   -1.12563100   -0.47495800
 C                 -4.19325700   -0.81864800    2.44630909
 H                 -4.86738500    0.95934900    1.47559202
 C                 -1.57346900   -3.20830800    1.23079503
 C                 -3.33188300   -1.94772000    2.40219402
 H                 -4.90566300   -0.73075500    3.26527309
 C                 -1.64126400   -4.19568300    2.18758702
 H                 -0.89802300   -3.30344200    0.38302100
 C                 -3.36873000   -2.97918100    3.37850189
 C                 -2.54062100   -4.07575800    3.27569699
 H                 -1.00307900   -5.07371000    2.10875106
 H                 -4.07075100   -2.89475600    4.20705605
 H                 -2.58150900   -4.86084100    4.02852678
 C                 -2.82159600    3.06041500    0.37556899
 H                 -2.68959000    2.34170100    1.19092202
 S                  0.48806600    3.17153800   -2.02590990
 C                  1.07540900   -1.47309900    1.89521599
 H                  0.21657900   -2.01475200    2.29010510
 O                  0.74963300   -0.76968900    0.82502103
 C                  1.41106400   -0.16362300    3.37947702
 H                  1.69289200    0.68469100    2.75872493
 C                  0.07311300   -0.19297100    3.77427006
 C                 -0.42750900   -1.10963900    4.82730007
 H                 -0.89036400   -0.49944000    5.61783695
 H                 -1.23903400   -1.72942600    4.41786909
 H                  0.34293800   -1.75228300    5.25733089
 C                 -0.89519800    0.67721200    3.08298802
 H                 -1.93405800    0.43917700    3.32000899
 H                 -0.64583300    1.71279800    3.37484789
 H                 -0.73490000    0.64037300    1.99587095
 H                  1.56460600   -0.37409600    0.36058301
 C                 -1.58624500   -3.24808700   -2.46460390
 C                 -1.61732000   -4.60354900   -2.22888803
 H                 -2.50602500   -2.67711000   -2.52500200
 H                 -2.56997200   -5.11421500   -2.10321093
 C                  0.80191600   -4.70759300   -2.30538607
 C                 -0.41096600   -5.33943300   -2.14177799
 H                  1.73100800   -5.27276700   -2.24171090
 H                 -0.44612900   -6.41005700   -1.94831395

 1 2 2.0 5 1.0 116 1.0
 2 3 1.0 11 1.0
 3 4 2.0 8 1.0
 4 6 1.0 7 1.0
 5 6 2.0 9 1.0
 6 10 1.0
 7
 8
 9
 10
 11 12 1.0
 12 13 1.0 14 1.0 119 1.0
 13
 14
 15
 16 17 1.0 19 1.0 115 2.0
 17 18 1.0 35 1.0
 18
 19 20 1.0 21 1.0
 20
 21 22 1.0 23 1.0 113 1.0
 22 25 1.0 26 1.0 27 1.0
 23
 24 28 1.0 29 1.0 30 1.0 113 1.0
 25 28 1.0 31 1.0 32 1.0
 26
 27
 28 33 1.0 34 1.0
 29
 30
 31
 32
 33
 34
 35 36 1.0 37 1.0 38 1.0
 36
 37 51 2.0 62 1.0
 38 39 1.0 43 1.0 47 1.0
 39 40 1.0 41 1.0 42 1.0
 40
 41
 42
 43 44 1.0 45 1.0 46 1.0
 44
 45
 46
 47 48 1.0 49 1.0 50 1.0
 48
 49
 50
 51
 52 54 1.0 62 1.0 63 1.0 67 1.0
 53 55 1.0 56 1.0 57 1.0 62 1.0
 54 55 1.0 58 1.0 59 1.0
 55 60 1.0 61 1.0
 56
 57
 58
 59
 60
 61
 62
 63 64 1.0 65 1.0 66 1.0
 64
 65
 66
 67 68 1.0 69 2.0
 68 70 2.0 71 1.0
 69 72 1.0 73 1.0
 70 74 1.0 135 1.0
 71
 72 74 2.0 75 1.0
 73
 74 131 1.0
 75
 76 77 1.0 78 1.0 113 1.0
 77 79 2.0 96 1.0
 78 80 2.0 82 1.0
 79 80 1.0 86 1.0
 80 81 1.0
 81
 82 83 1.0 84 1.0 85 1.0
 83
 84
 85
 86 87 1.0 95 2.0
 87 88 1.0
 88 89 1.0 90 1.0 91 1.0
 89
 90
 91 92 1.0 93 1.0 94 1.0
 92
 93
 94
 95
 96 97 2.0 98 1.0
 97 99 1.0 100 1.0
 98 101 2.0 102 1.0
 99 103 1.0 104 2.0
 100
 101 104 1.0 105 1.0
 102
 103 106 2.0 107 1.0
 104 108 1.0
 105
 106 109 1.0 110 1.0
 107
 108 109 2.0 111 1.0
 109 112 1.0
 110
 111
 112
 113 114 1.0
 114
 115
 116 117 1.0 118 2.0
 117
 118
 119 120 1.0 121 2.0
 120
 121 122 1.0 126 1.0
 122 123 1.0 124 1.0 125 1.0
 123
 124
 125
 126 127 1.0 128 1.0 129 1.0
 127
 128
 129
 130
 131 132 2.0 133 1.0
 132 134 1.0 136 1.0
 133
 134
 135 136 2.0 137 1.0
 136 138 1.0
 137
 138

!   Basis set: pcseg-1
-H     0
S    3   1.00
      0.122518D+02           0.233371D-01
      0.186871D+01           0.159150D+00
      0.418208D+00           0.500000D+00
S    1   1.00
      0.106100D+00           1.0000000
P    1   1.00
      0.100000D+01           1.0000000
****
-C     0
S    5   1.00
      0.124320D+04           0.603366D-02
      0.187145D+03           0.449576D-01
      0.425126D+02           0.197901D+00
      0.117393D+02           0.500000D+00
      0.350548D+01           0.480364D+00
S    2   1.00
      0.539089D+01          -0.703980D-01
      0.493341D+00           0.500000D+00
S    1   1.00
      0.149741D+00           1.0000000
P    3   1.00
      0.918056D+01           0.431701D-01
      0.193658D+01           0.224999D+00
      0.526296D+00           0.500000D+00
P    1   1.00
      0.136319D+00           1.0000000
D    1   1.00
      0.800000D+00           1.0000000
****
-N     0
S    5   1.00
      0.172632D+04           0.593077D-02
      0.259827D+03           0.442539D-01
      0.590335D+02           0.196096D+00
      0.163509D+02           0.500000D+00
      0.491084D+01           0.482987D+00
S    2   1.00
      0.775894D+01          -0.703356D-01
      0.705573D+00           0.500000D+00
S    1   1.00
      0.209286D+00           1.0000000
P    3   1.00
      0.131844D+02           0.440747D-01
      0.281860D+01           0.230478D+00
      0.765571D+00           0.500000D+00
P    1   1.00
      0.195949D+00           1.0000000
D    1   1.00
      0.900000D+00           1.0000000
****
-O     0
S    5   1.00
      0.228864D+04           0.585468D-02
      0.344416D+03           0.437333D-01
      0.782538D+02           0.194796D+00
      0.217195D+02           0.500000D+00
      0.655907D+01           0.484614D+00
S    2   1.00
      0.104656D+02          -0.713343D-01
      0.964351D+00           0.500000D+00
S    1   1.00
      0.285127D+00           1.0000000
P    3   1.00
      0.170590D+02           0.474439D-01
      0.368999D+01           0.242689D+00
      0.992996D+00           0.500000D+00
P    1   1.00
      0.244924D+00           1.0000000
D    1   1.00
      0.100000D+01           1.0000000
****
-S     0
S    7   1.00
      0.492994D+05           0.745680D-03
      0.739584D+04           0.575893D-02
      0.168330D+04           0.294637D-01
      0.476144D+03           0.113223D+00
      0.154329D+03           0.315267D+00
      0.550288D+02           0.500000D+00
      0.205029D+02           0.299093D+00
S    3   1.00
      0.459596D+02          -0.874744D-01
      0.492740D+01           0.558303D+00
      0.191799D+01           0.500000D+00
S    1   1.00
      0.368498D+00           1.0000000
S    1   1.00
      0.129165D+00           1.0000000
P    6   1.00
      0.451662D+03           0.400554D-02
      0.106098D+03           0.315665D-01
      0.336996D+02           0.134441D+00
      0.123054D+02           0.347659D+00
      0.471412D+01           0.500000D+00
      0.178105D+01           0.287922D+00
P    2   1.00
      0.872235D+00           0.243521D+00
      0.310278D+00           0.500000D+00
P    1   1.00
      0.100194D+00           1.0000000
D    1   1.00
      0.550000D+00           1.0000000
****
-Cl     0
S    7   1.00
      0.561295D+05           0.739040D-03
      0.842032D+04           0.570820D-02
      0.191646D+04           0.292141D-01
      0.542099D+03           0.112411D+00
      0.175740D+03           0.313999D+00
      0.627191D+02           0.500000D+00
      0.234123D+02           0.302077D+00
S    3   1.00
      0.522067D+02          -0.897496D-01
      0.566022D+01           0.573007D+00
      0.224230D+01           0.500000D+00
S    1   1.00
      0.456488D+00           1.0000000
S    1   1.00
      0.159693D+00           1.0000000
P    6   1.00
      0.533333D+03           0.379695D-02
      0.125415D+03           0.300914D-01
      0.399394D+02           0.129733D+00
      0.146334D+02           0.341517D+00
      0.564837D+01           0.500000D+00
      0.215360D+01           0.289333D+00
P    2   1.00
      0.108810D+01           0.252417D+00
      0.387168D+00           0.500000D+00
P    1   1.00
      0.123929D+00           1.0000000
D    1   1.00
      0.600000D+00           1.0000000
****






