%chk=N-IN3-t_g.chk
%nprocshared=16
%mem=16GB
# 6-311+g(d,p) scrf=(smd,solvent=n,n-DiMethylFormamide) geom=connectivity m06

title card

0 1
O -1.40398700 2.34491300 0.84675900
O 0.75267800 -2.22452600 0.44721100
N 0.88469300 2.63814100 0.87993400
N -1.13467900 -2.69260500 -0.69998800
C -0.65717900 -4.05497000 -0.91089300
H -1.52649400 -4.72871600 -0.85866800
H 0.01544000 -4.29815800 -0.08216900
C 0.05034800 -4.20462400 -2.23307700
C 1.32596300 -3.65538400 -2.41169900
H 1.80230500 -3.13546700 -1.57850400
C 1.97750800 -3.76751200 -3.63539700
H 2.97671500 -3.34431800 -3.75368400
C 1.35572900 -4.42189200 -4.69891100
H 1.86551600 -4.50812900 -5.65776500
C 0.08735600 -4.96643200 -4.53290500
H -0.40261500 -5.47808100 -5.36087100
C -0.55940800 -4.85791800 -3.30345600
H -1.55282500 -5.29206800 -3.16577800
C -3.57164800 -2.88875800 -0.38837200
C -3.66790600 -2.49077200 0.94839900
H -2.91759200 -1.81879800 1.37489400
C -4.72425600 -2.92754000 1.73879400
H -4.81358100 -2.56776900 2.76436400
C -5.69115400 -3.77893400 1.20666200
H -6.51989700 -4.11819700 1.82709500
C -5.59686200 -4.18898700 -0.11843500
H -6.34432500 -4.86116000 -0.53893300
C -4.54009100 -3.74418100 -0.90945400
H -4.46291700 -4.06305700 -1.95105400
C 2.00436700 2.14418600 0.17850300
H 1.93598300 2.15578100 -0.90920700
C 3.25145000 1.98676800 0.84094500
C 4.46531400 1.86451900 0.11887700
H 4.43337200 1.94856900 -0.97105700
C 5.66575600 1.62383400 0.76409100
H 6.57621300 1.51614000 0.17267600
C 5.72330400 1.50111700 2.15497900
H 6.66668800 1.28553000 2.65457500
C 4.54217500 1.62194000 2.88688400
H 4.55988600 1.48913000 3.96978800
C 3.33426100 1.86672500 2.25155000
H 2.41079800 1.92862000 2.83112100
C 0.80515600 4.03408300 1.30843300
H 1.74736700 4.25468400 1.83004900
H -0.02342100 4.12676500 2.02280900
C 0.61480800 4.96879200 0.14767600
C -0.65433200 5.42853800 -0.20488500
H -1.51599000 5.09403200 0.37367200
C -0.81855600 6.29169800 -1.28511700
H -1.81441800 6.65292300 -1.54195000
C 0.28356600 6.68385800 -2.04131300
H 0.15533100 7.36008600 -2.88587500
C 1.55073500 6.20937100 -1.71008300
H 2.41736200 6.50964600 -2.29858800
C 1.71500500 5.35814800 -0.62172100
H 2.70528600 4.98553600 -0.35513600
C -2.44039700 -2.39577400 -1.25725500
H -2.49771200 -2.86492700 -2.25319600
C -0.77314900 -0.43924400 0.15124000
H -1.72275300 -0.07843100 -0.24320300
C -0.33697500 -1.81760300 0.00287400
C 0.08755500 0.46194400 0.68217200
H 1.03408700 0.12431400 1.10134800
H -2.53438500 -1.31787000 -1.43539800
C -0.23635300 1.87834800 0.80622100

 1 65 2.0
 2 61 2.0
 3 30 1.0 43 1.0 65 1.0
 4 5 1.0 57 1.0 61 1.0
 5 6 1.0 7 1.0 8 1.0
 6
 7
 8 9 2.0 17 1.0
 9 10 1.0 11 1.0
 10
 11 12 1.0 13 2.0
 12
 13 14 1.0 15 1.0
 14
 15 16 1.0 17 2.0
 16
 17 18 1.0
 18
 19 20 1.0 28 2.0 57 1.0
 20 21 1.0 22 2.0
 21
 22 23 1.0 24 1.0
 23
 24 25 1.0 26 2.0
 25
 26 27 1.0 28 1.0
 27
 28 29 1.0
 29
 30 31 1.0 32 1.0
 31
 32 33 2.0 41 1.0
 33 34 1.0 35 1.0
 34
 35 36 1.0 37 2.0
 36
 37 38 1.0 39 1.0
 38
 39 40 1.0 41 2.0
 40
 41 42 1.0
 42
 43 44 1.0 45 1.0 46 1.0
 44
 45
 46 47 2.0 55 1.0
 47 48 1.0 49 1.0
 48
 49 50 1.0 51 2.0
 50
 51 52 1.0 53 1.0
 52
 53 54 1.0 55 2.0
 54
 55 56 1.0
 56
 57 58 1.0 64 1.0
 58
 59 60 1.0 61 1.0 62 2.0
 60
 61
 62 63 1.0 65 1.0
 63
 64
 65


