%chk=cutopt-pro.chk
%nprocshared=16
%mem=16GB
#p b3lyp/6-31g(d) em=gd3

tmpdir/Subs_0_0.gjf

0 1
 C                  3.80195200   -0.40788300   -1.35112900
 C                  1.12945200   -2.04597300   -0.15946000
 C                  1.63232800   -0.66013600    0.07121300
 C                  2.72807200    0.03560500   -0.40818700
 N                  1.00668100    0.23940600    0.88211200
 N                  1.66318500    1.42486100    0.89363700
 N                  2.70447300    1.29712900    0.11826800
 C                 -0.25952400    0.10101100    1.58653200
 H                 -0.23953300   -0.82288200    2.17451200
 H                 -0.29624300    0.94273100    2.28437900
 C                 -1.44967800    0.11363800    0.64542300
 C                 -2.44057800   -0.86809900    0.73123000
 C                 -1.56439700    1.12295700   -0.31923600
 C                 -3.54119500   -0.84013900   -0.12910200
 H                 -2.35268100   -1.65897500    1.47324500
 C                 -2.65990600    1.14909400   -1.18034500
 H                 -0.78676400    1.87901000   -0.39192900
 C                 -3.65202400    0.16830400   -1.08658800
 H                 -4.30542800   -1.60903400   -0.05391000
 H                 -2.74053300    1.93536100   -1.92605600
 H                 -4.50497400    0.18979500   -1.75946000
 H                  3.94479400   -1.49316200   -1.31471500
 H                  4.75017600    0.07281500   -1.09278500
 H                  3.56688600   -0.13752700   -2.38846000
 H                  1.81417100   -2.59012700   -0.81517800
 H                  1.04440700   -2.60896400    0.77893300
 H                  0.13833900   -2.03910100   -0.62881000

