%chk=N-TS2-c_g.chk
%nprocshared=16
%mem=16GB
# 6-311+g(d,p) scrf=(smd,solvent=n,n-dimethylformamide) geom=connectivity
m06

title card

-1 1
 O                  1.73751400    0.82985700   -2.09678200
 O                 -1.24328500   -2.53012800    1.18003000
 N                 -0.42267300    1.59713100   -2.35918400
 N                  0.43805200   -1.26014200    2.02391900
 C                  0.23626200   -1.90921500    3.31745300
 H                  1.20739800   -2.27889800    3.68029100
 H                 -0.41207200   -2.77523000    3.14777400
 C                 -0.37806400   -0.97701100    4.32347300
 C                 -1.73466200   -0.65499500    4.22376100
 H                 -2.32051700   -1.09891500    3.41632800
 C                 -2.32436000    0.21792900    5.13095200
 H                 -3.37889700    0.47302900    5.02421600
 C                 -1.55579300    0.78748500    6.14707600
 H                 -2.01490500    1.47581900    6.85588300
 C                 -0.20301200    0.47973700    6.25050600
 H                  0.40104100    0.92553700    7.04031000
 C                  0.38116200   -0.40042300    5.34114300
 H                  1.44220100   -0.64967200    5.41791000
 C                  2.85486500   -1.75985100    1.80973200
 C                  4.02461400   -1.59243700    2.54819900
 H                  4.13996900   -0.69933400    3.16674700
 C                  5.04763400   -2.53418100    2.48072500
 H                  5.96198200   -2.38227300    3.05382800
 C                  4.90636100   -3.65780400    1.67365000
 H                  5.70815600   -4.39231200    1.60900900
 C                  3.73821200   -3.83325600    0.93488900
 H                  3.63151200   -4.70385100    0.28805100
 C                  2.71773100   -2.89273600    1.00404600
 H                  1.80271900   -3.02957200    0.42504800
 C                 -1.56488300    1.66209500   -1.48583800
 H                 -1.67298400    2.64789100   -1.01794800
 C                 -2.79785200    1.08612600   -1.97095300
 C                 -2.81861200   -0.06638200   -2.78320500
 H                 -1.86979200   -0.50408000   -3.09715300
 C                 -4.01789900   -0.64686600   -3.17382000
 H                 -4.01256900   -1.55797500   -3.77393000
 C                 -5.23685900   -0.09607600   -2.78450700
 H                 -6.17128900   -0.57461400   -3.07402400
 C                 -5.23759900    1.05685800   -2.00010900
 H                 -6.18204300    1.50888800   -1.69621100
 C                 -4.04312700    1.63422900   -1.59711300
 H                 -4.05241300    2.53560800   -0.97736300
 C                 -0.24434200    2.35086300   -3.58885200
 H                 -1.14847100    2.21173900   -4.19940000
 H                  0.60966600    1.90850900   -4.12018200
 C                  0.00003300    3.80589400   -3.30480500
 C                  1.30207600    4.28315600   -3.14303300
 H                  2.13759900    3.59136400   -3.26558900
 C                  1.53003800    5.61843200   -2.82408300
 H                  2.55097600    5.98321900   -2.71188200
 C                  0.45529800    6.48709000   -2.64638700
 H                  0.63349700    7.53195600   -2.39549200
 C                 -0.84684800    6.01403600   -2.78821100
 H                 -1.69044100    6.68804000   -2.64477600
 C                 -1.07212200    4.68068900   -3.11860300
 H                 -2.08912100    4.29973300   -3.22884900
 C                  1.77182100   -0.70911100    1.83828200
 H                  1.97639300    0.01210800    2.64736900
 C                 -0.29582600   -0.94384000   -0.29189100
 H                 -0.59037900   -1.55883000   -1.14483600
 C                 -0.42072100   -1.61113900    0.98057200
 C                 -0.06511000    0.40747400   -0.47866700
 H                  0.16633900    1.01907700    0.39929500
 H                  1.80124900   -0.14150500    0.90160400
 C                  0.55509500    0.93764200   -1.73438100

 1 65 2.0
 2 61 2.0
 3 30 1.0 43 1.0 65 1.0
 4 5 1.0 57 1.0 61 1.0
 5 6 1.0 7 1.0 8 1.0
 6
 7
 8 9 1.5 17 1.5
 9 10 1.0 11 1.5
 10
 11 12 1.0 13 1.5
 12
 13 14 1.0 15 1.5
 14
 15 16 1.0 17 1.5
 16
 17 18 1.0
 18
 19 20 1.5 28 1.5 57 1.0
 20 21 1.0 22 1.5
 21
 22 23 1.0 24 1.5
 23
 24 25 1.0 26 1.5
 25
 26 27 1.0 28 1.5
 27
 28 29 1.0
 29
 30 31 1.0 32 1.0
 31
 32 33 1.5 41 1.5
 33 34 1.0 35 1.5
 34
 35 36 1.0 37 1.5
 36
 37 38 1.0 39 1.5
 38
 39 40 1.0 41 1.5
 40
 41 42 1.0
 42
 43 44 1.0 45 1.0 46 1.0
 44
 45
 46 47 1.5 55 1.5
 47 48 1.0 49 1.5
 48
 49 50 1.0 51 1.5
 50
 51 52 1.0 53 1.5
 52
 53 54 1.0 55 1.5
 54
 55 56 1.0
 56
 57 58 1.0 64 1.0
 58
 59 60 1.0 61 1.0 62 2.0
 60
 61
 62 63 1.0 65 1.0
 63
 64
 65


 