%chk=2R1.chk
%nprocshared=16
%mem=16GB
# scrf=(cpcm,solvent=water) geom=connectivity def2tzvp olyp

title card

0 1
 Mg                 2.43572000    0.84584000    1.83521500
 O                 -1.30130600    0.71789800    0.46229200
 P                 -0.15561500   -0.22182200    0.43647500
 O                 -0.23590600   -1.38588700   -0.63879300
 O                  1.27644000    0.29201100    0.38032400
 O                 -0.23239200   -1.16140900    1.88329300
 P                  0.43523600   -0.79447800    3.25039000
 O                  1.57266800   -1.93444800    3.47378700
 O                 -0.58922400   -0.98802600    4.40994700
 O                  1.05873400    0.56785000    3.29536900
 P                  3.17835700   -1.70913000    3.46554000
 O                  3.56553800   -0.65643600    2.47366200
 O                  3.62540400   -1.29027500    4.90323600
 O                  3.77337200   -3.13785000    3.24534800
 H                 -1.15749200   -1.77473900    4.35418100
 H                  3.47038700   -1.94226900    5.60712900
 H                  3.58676800   -3.54678400    2.38331400
 C                 -1.51638900   -1.90378800   -1.09671400
 H                 -2.01937300   -2.43833500   -0.28795700
 H                 -1.28190200   -2.59275500   -1.90732800
 H                 -2.14462000   -1.09086000   -1.46302100
 H                 -2.64151700    1.02952000   31.69584200
 C                 -1.54879200    0.91579200   31.48338000
 H                 -1.08678100    0.76178000   32.49082600
 O                 -1.24893200   -0.06738000   30.56436800
 H                 -1.21853600    1.94215200   31.18361500

 1 5 1.0
 2 3 2.0
 3 4 1.0 5 1.0 6 1.0
 4 18 1.0
 5
 6 7 1.0
 7 8 1.0 9 1.0 10 2.0
 8 11 1.0
 9 15 1.0
 10
 11 12 2.0 13 1.0 14 1.0
 12
 13 16 1.0
 14 17 1.0
 15
 16
 17
 18 19 1.0 20 1.0 21 1.0
 19
 20
 21
 22 23 1.0
 23 24 1.0 25 1.0 26 1.0
 24
 25
 26
