%chk=q1@C-1.chk
%nprocshared=24
%mem=24GB
# geom=connectivity def2tzvp m062x

title card

0 1
 Pd                -6.25136777    0.00188889   -0.00088328
 N                 -6.19210845    1.43858874   -1.42680768
 N                 -6.19272006    1.43839846    1.42525286
 C                 -7.30496689    1.95303762   -1.97044847
 C                 -4.98716582    1.87833235   -1.80292638
 N                 -6.18912149   -1.43463410   -1.42689688
 N                 -6.18966809   -1.43480798    1.42496873
 C                 -7.30580801    1.95360310    1.96771642
 C                 -4.98794258    1.87819456    1.80177831
 C                 -7.23877344    2.95315917   -2.93440379
 H                 -8.25999940    1.55343366   -1.62128039
 C                 -4.83078691    2.88408037   -2.76642074
 H                 -4.11811345    1.42466526   -1.31896695
 C                 -7.30112152   -1.95092530   -1.97054257
 C                 -4.98347043   -1.87339367   -1.80193711
 C                 -7.30180277   -1.95033375    1.96906294
 C                 -4.98413326   -1.87365745    1.80026194
 C                 -7.23998971    2.95433016    2.93107148
 H                 -8.26072323    1.55416712    1.61803183
 C                 -4.83196488    2.88516586    2.76405675
 H                 -4.11859522    1.42348696    1.31933804
 C                 -5.99781526    3.42619157   -3.33893071
 H                 -8.15813750    3.35719512   -3.36172913
 C                 -3.53864991    3.33311764   -3.13858373
 C                 -7.23334716   -2.95197226   -2.93342374
 H                 -8.25676765   -1.55206762   -1.62222237
 C                 -4.82551934   -2.88050523   -2.76374109
 H                 -4.11514704   -1.41762587   -1.31866161
 C                 -7.23428258   -2.95084690    2.93251586
 H                 -8.25733816   -1.55129506    1.62064303
 C                 -4.82641839   -2.87983011    2.76308482
 H                 -4.11575631   -1.41879015    1.31623406
 C                 -5.99919025    3.42754902    3.33589137
 H                 -8.15954626    3.35909823    3.35729058
 C                 -3.53990211    3.33416450    3.13652539
 H                 -5.91505570    4.21230387   -4.09268266
 C                 -2.45560837    3.75526939   -3.50184768
 C                 -5.99166182   -3.42433347   -3.33646476
 H                 -8.15204635   -3.35740752   -3.36084740
 C                 -3.53291782   -3.32951093   -3.13440857
 C                 -5.99271360   -3.42317855    3.33595675
 H                 -8.15307956   -3.35563438    3.36034380
 C                 -3.53392898   -3.32862117    3.13439486
 H                 -5.91675818    4.21466870    4.08862626
 C                 -2.45685887    3.75642363    3.49966089
 C                 -1.21496914    4.27861212   -3.96163433
 H                 -5.90762787   -4.21147742   -4.08899428
 C                 -2.45012863   -3.75274332   -3.49721262
 H                 -5.90887371   -4.20955223    4.08931288
 C                 -2.45121699   -3.75146723    3.49787600
 C                 -1.21630980    4.28001915    3.95939556
 C                 -0.00236797    3.75613290   -3.49142572
 C                 -1.20478952    5.32658850   -4.90274073
 C                 -1.21065870   -4.27826109   -3.95769254
 C                 -1.21191969   -4.27649376    3.95938133
 C                 -0.00355728    3.75698164    3.49019885
 C                 -1.20642223    5.32955164    4.89878191
 C                  1.21195507    4.27651058   -3.95939433
 H                 -0.00416780    2.93754140   -2.76909049
 C                  0.00101890    5.84110283   -5.36516711
 H                 -2.14977443    5.73132356   -5.26915054
 C                  0.00349005   -3.75702017   -3.49019181
 C                 -1.20346184   -5.32821441   -4.89667092
 C                  0.00240777   -3.75610298    3.49143861
 C                 -1.20505690   -5.32454353    4.90049594
 C                  1.21061046    4.27822511    3.95764371
 H                 -0.00494062    2.93650095    2.77000832
 C                 -0.00077725    5.84534339    5.36019064
 H                 -2.15152965    5.73531648    5.26373115
 C                  1.20508576    5.32454809   -4.90052243
 C                  2.45125149    3.75147290   -3.49790080
 H                  0.00243201    6.65339214   -6.09506810
 C                  1.21626037   -4.28006035   -3.95933285
 H                  0.00483292   -2.93655147   -2.76998831
 C                  0.00078357   -5.84533796   -5.36023266
 H                 -2.14962672   -5.73283031   -5.26016434
 C                  1.21500492   -4.27858879    3.96164928
 H                  0.00421369   -2.93749106    2.76912629
 C                 -0.00099405   -5.84108767    5.36516263
 H                 -2.15135284   -5.72767836    5.26529590
 C                  1.20344592    5.32824290    4.89655034
 C                  2.45007487    3.75271675    3.49713244
 H                  0.00037796    6.65954982    6.08795135
 H                  2.15137891    5.72767265   -5.26534156
 C                  3.53395294    3.32865388   -3.13435763
 C                  1.20640768   -5.32956846   -4.89874641
 C                  2.45679811   -3.75643972   -3.49959024
 H                 -0.00033574   -6.65946969   -6.08807681
 C                  1.20481788   -5.32656028    4.90276061
 C                  2.45564964   -3.75524817    3.50187577
 H                 -0.00241607   -6.65337776    6.09506279
 H                  2.14962633    5.73284547    5.26001914
 C                  3.53288367    3.32949360    3.13437774
 C                  4.82643837    2.87982857   -2.76307149
 H                  2.15153189   -5.73526154   -5.26373252
 C                  3.53983570   -3.33414863   -3.13647535
 H                  2.14979913   -5.73129286    5.26918146
 C                  3.53870480   -3.33308567    3.13866511
 C                  4.82549311    2.88050503    2.76371068
 C                  4.98414712    1.87367166   -1.80023223
 C                  5.99273442    3.42312242   -3.33599295
 C                  4.83190547   -2.88513311   -2.76404926
 C                  4.83083962   -2.88406688    2.76647392
 C                  4.98346185    1.87339073    1.80191262
 C                  5.99162513    3.42433330    3.33645496
 N                  6.18967830    1.43477943   -1.42497761
 H                  4.11577471    1.41885534   -1.31614844
 C                  7.23429993    2.95074702   -2.93259112
 H                  5.90889826    4.20949161   -4.08935439
 C                  4.98791547   -1.87820143   -1.80173475
 C                  5.99911365   -3.42750688   -3.33592865
 C                  4.98720303   -1.87831819    1.80297697
 C                  5.99787685   -3.42619834    3.33894613
 N                  6.18912038    1.43463510    1.42689026
 H                  4.11514794    1.41762773    1.31861571
 C                  7.23331868    2.95198455    2.93342457
 H                  5.90757534    4.21148389    4.08897579
 Pd                 6.25138332   -0.00190538    0.00088306
 C                  7.30181465    1.95023748   -1.96913373
 H                  8.15309499    3.35549548   -3.36046063
 N                  6.19270708   -1.43841421   -1.42524088
 H                  4.11859018   -1.42351811   -1.31923158
 C                  7.23992752   -2.95430275   -2.93113538
 H                  5.91665705   -4.21459795   -4.08869066
 N                  6.19213929   -1.43859364    1.42681976
 H                  4.11813611   -1.42464006    1.31905371
 C                  7.23883024   -2.95319020    2.93437362
 H                  5.91512987   -4.21230911    4.09270098
 C                  7.30111117    1.95093916    1.97054258
 H                  8.15201014    3.35743954    3.36084646
 H                  8.25734758    1.55116004   -1.62075193
 C                  7.30577757   -1.95359743   -1.96775978
 H                  8.15946847   -3.35905694   -3.35740120
 C                  7.30500742   -1.95307542    1.97041021
 H                  8.15820236   -3.35724544    3.36166398
 H                  8.25676268    1.55209377    1.62222316
 H                  8.26070408   -1.55416017   -1.61810697
 H                  8.26003569   -1.55349650    1.62120122
 C                 -0.67331036   -1.26859355    0.00028550
 C                  0.67056023   -1.27011164    0.00005343
 C                 -1.43540295    0.00159737    0.00004737
 H                 -1.25897705   -2.19253277   -0.00020196
 C                  1.43535871   -0.00153432   -0.00001603
 H                  1.25404695   -2.19543456   -0.00057199
 C                 -0.67060615    1.27017559   -0.00001229
 O                 -2.65776325    0.00276285   -0.00009700
 C                  0.67326582    1.26865760   -0.00024071
 O                  2.65771837   -0.00270674    0.00009934
 H                 -1.25408995    2.19550038    0.00059547
 H                  1.25892810    2.19260008    0.00023253
 C                 -0.58886166   -1.50887523   30.55742811
 C                 -1.35799507   -0.79688354   29.71956027
 H                 -0.11350922   -1.04604994   31.42573026
 H                 -0.42313204   -2.57876397   30.40278206
 C                 -2.07599828   -1.42447813   28.56010057
 C                 -1.55955467    0.65337695   29.88079165
 H                 -3.16931626   -1.33100881   28.68261688
 H                 -1.81735740   -0.91476144   27.61767941
 H                 -1.83187599   -2.49101444   28.45788316
 C                 -0.64269586    1.52597355   30.31200107
 H                 -2.54118107    1.03628497   29.57245412
 H                  0.36928686    1.20493379   30.57773533
 H                 -0.87808932    2.58900623   30.40983713

 1
 2 5 2.0 4 1.0
 3 9 2.0 8 1.0
 4 11 1.0 10 2.0
 5 13 1.0 12 1.0
 6 15 2.0 14 1.0
 7 17 2.0 16 1.0
 8 19 1.0 18 2.0
 9 21 1.0 20 1.0
 10 23 1.0 22 1.0
 11
 12 22 2.0 24 1.0
 13
 14 26 1.0 25 2.0
 15 28 1.0 27 1.0
 16 30 1.0 29 2.0
 17 32 1.0 31 1.0
 18 34 1.0 33 1.0
 19
 20 33 2.0 35 1.0
 21
 22 36 1.0
 23
 24 37 3.0
 25 39 1.0 38 1.0
 26
 27 38 2.0 40 1.0
 28
 29 42 1.0 41 1.0
 30
 31 41 2.0 43 1.0
 32
 33 44 1.0
 34
 35 45 3.0
 36
 37 46 1.0
 38 47 1.0
 39
 40 48 3.0
 41 49 1.0
 42
 43 50 3.0
 44
 45 51 1.0
 46 52 2.0 53 1.0
 47
 48 54 1.0
 49
 50 55 1.0
 51 56 2.0 57 1.0
 52 59 1.0 58 1.0
 53 61 1.0 60 2.0
 54 62 2.0 63 1.0
 55 64 2.0 65 1.0
 56 67 1.0 66 1.0
 57 69 1.0 68 2.0
 58 71 1.0 70 2.0
 59
 60 72 1.0 70 1.0
 61
 62 74 1.0 73 1.0
 63 76 1.0 75 2.0
 64 78 1.0 77 1.0
 65 80 1.0 79 2.0
 66 82 1.0 81 2.0
 67
 68 83 1.0 81 1.0
 69
 70 84 1.0
 71 85 3.0
 72
 73 87 1.0 86 2.0
 74
 75 88 1.0 86 1.0
 76
 77 90 1.0 89 2.0
 78
 79 91 1.0 89 1.0
 80
 81 92 1.0
 82 93 3.0
 83
 84
 85 94 1.0
 86 95 1.0
 87 96 3.0
 88
 89 97 1.0
 90 98 3.0
 91
 92
 93 99 1.0
 94 100 2.0 101 1.0
 95
 96 102 1.0
 97
 98 103 1.0
 99 104 2.0 105 1.0
 100 107 1.0 106 1.0
 101 109 1.0 108 2.0
 102 110 2.0 111 1.0
 103 112 2.0 113 1.0
 104 115 1.0 114 1.0
 105 117 1.0 116 2.0
 106 119 2.0
 107
 108 120 1.0 119 1.0
 109
 110 122 1.0 121 1.0
 111 124 1.0 123 2.0
 112 126 1.0 125 1.0
 113 128 1.0 127 2.0
 114 129 2.0
 115
 116 130 1.0 129 1.0
 117
 118
 119 131 1.0
 120
 121 132 2.0
 122
 123 133 1.0 132 1.0
 124
 125 134 2.0
 126
 127 135 1.0 134 1.0
 128
 129 136 1.0
 130
 131
 132 137 1.0
 133
 134 138 1.0
 135
 136
 137
 138
 139 142 1.0 141 1.0 140 2.0
 140 144 1.0 143 1.0
 141 146 2.0 145 1.0
 142
 143 148 2.0 147 1.0
 144
 145 149 1.0 147 2.0
 146
 147 150 1.0
 148
 149
 150
 151 153 1.0 152 2.0 154 1.0
 152 155 1.0 156 1.0
 153
 154
 155 159 1.0 157 1.0 158 1.0
 156 161 1.0 160 2.0
 157
 158
 159
 160 162 1.0 163 1.0
 161
 162
 163

