%chk=react.chk
%nprocshared=16
%mem=16GB
#p b3lyp/6-31g(d) geom=connectivity em=gd3

title

0 1
 N                  2.23400200   -0.78778000  -20.10684500
 N                  2.38765400    0.38371000  -20.46803700
 N                  2.61107400    1.42613900  -20.87893800
 C                  1.17704800   -0.98958900  -19.06889200
 H                  1.16533800   -2.06934300  -18.90794900
 H                  1.49308700   -0.51321900  -18.13130900
 C                 -0.18046800   -0.48289700  -19.49636000
 C                 -0.98562800   -1.24790700  -20.35030900
 C                 -0.62371300    0.78269300  -19.09580000
 C                 -2.21518100   -0.75943800  -20.78871700
 H                 -0.64118400   -2.22737200  -20.67365300
 C                 -1.85460000    1.27493300  -19.53440600
 H                 -0.00423600    1.38445900  -18.43445700
 C                 -2.65218800    0.50414100  -20.38094100
 H                 -2.83371100   -1.36325400  -21.44724100
 H                 -2.18884100    2.25796800  -19.21419300
 H                 -3.61118200    0.88465300  -20.72190400
 C                 -0.99263600   -1.49660400    0.05981100
 C                  0.16758412   -1.16459583    0.15372299
 C                  1.33628395   -0.17682324    0.32706088
 H                  1.20190657    0.37959321    1.23107606
 H                  2.25740426   -0.71911549    0.37560449
 H                  1.36155938    0.49536182   -0.50506195
 C                 -2.51392897   -1.36452794   -0.13974753
 H                 -2.95568005   -2.33863520   -0.16926071
 H                 -2.93306292   -0.80726481    0.67184630
 H                 -2.71004575   -0.85591670   -1.06048246
 
 1 2 2.0 4 1.0
 2 3 2.0
 3
 4 5 1.0 6 1.0 7 1.0
 5
 6
 7 8 1.5 9 1.5
 8 10 1.5 11 1.0
 9 12 1.5 13 1.0
 10 14 1.5 15 1.0
 11
 12 14 1.5 16 1.0
 13
 14 17 1.0
 15
 16
 17
 18 19 3.0 24 1.0
 19 20 1.0
 20 21 1.0 22 1.0 23 1.0
 21
 22
 23
 24 25 1.0 26 1.0 27 1.0
 25
 26
 27