%chk=eneme.chk
%nprocshared=16
%mem=16GB
#p b3lyp/6-31g(d) geom=connectivity em=gd3 

title

0 1
 C                  0.16758412   -1.16459583    0.15372299
 C                 -0.99263600   -1.49660400    0.05981100
 C                 -2.51392897   -1.36452794   -0.13974753
 H                 -2.95568005   -2.33863520   -0.16926071
 H                 -2.93306292   -0.80726481    0.67184630
 H                 -2.71004575   -0.85591670   -1.06048246
 C                  1.33628395   -0.17682324    0.32706088
 H                  1.20190657    0.37959321    1.23107606
 H                  2.25740426   -0.71911549    0.37560449
 H                  1.36155938    0.49536182   -0.50506195

 1 2 3.0 7 1.0
 2 3 1.0
 3 4 1.0 5 1.0 6 1.0
 4
 5
 6
 7 8 1.0 9 1.0 10 1.0
 8
 9
 10

