%chk=bnts-ts-pro.chk
%nprocshared=16 
%mem=16GB 
#MP2 IOp(3/125=0333312000) nosymm

tmpdir/Subs_0_0.gjf 

0 1
C                   2.81536300   -1.44991700    1.20387300 
C                   1.19388200    1.21002400   -0.32339600 
C                   0.87872700   -0.24557100   -0.15339100 
C                   1.51958800   -1.31472400    0.45433800 
N                  -0.25772700   -0.80104900   -0.67694700 
N                  -0.31709400   -2.12018200   -0.41758300 
N                   0.75448800   -2.43260300    0.25759800 
C                  -1.37764400   -0.16549800   -1.37251200 
H                  -1.06162100    0.84751100   -1.63170200 
H                  -1.53747000   -0.71693400   -2.30311100 
C                  -2.65185300   -0.13594200   -0.55079300 
C                  -2.67822300    0.48302000    0.70582200 
C                  -3.81974600   -0.71436300   -1.05437500 
C                  -3.86129400    0.51985400    1.44201500 
H                  -1.76798900    0.92501100    1.09870100 
C                  -5.00646400   -0.67109800   -0.31919200 
H                  -3.80106700   -1.20894100   -2.02278100 
C                  -5.02926400   -0.05373500    0.93129000 
H                  -3.87246000    0.99751100    2.41836000 
H                  -5.90735800   -1.12729600   -0.72075500 
H                  -5.94981800   -0.02342800    1.50818900 
H                   3.73732737   -1.42808532    0.56911257 
H                   2.75967300   -2.42374600    1.70115300 
H                   2.89196300   -0.69966100    2.00040100 
H                   2.22608625    1.48158839   -0.02283274 
H                   1.07260500    1.46860300   -1.39113100 
H                   0.39124189    1.81223275    0.29539138 


