%chk=N5-connect.chk
#sp M062X/6-31G* geom=connectivity 

Title Card

0 1
C 1.038209 -0.864594 1.256533
C 1.428612 0.484493 1.236484
H 1.340009 1.174761 2.068622
H 0.577494 -1.37555 2.094429
C -1.768673 0.710972 0.723919 
C -1.00543 1.795176 -0.050135 
C -0.11278 1.010644 -1.006662
C -0.543908 -0.312381 -1.094566 
H -2.821331 0.939627 0.904167
H -0.4417 2.46973 0.601207
H -1.699574 2.412194 -0.632948 
H 0.337585 1.524043 -1.851271 
H -0.404022 -0.971925 -1.942831
H -1.303189 0.510556 1.69648
C -1.638534 -0.552983 -0.130925 
O -2.316384 -1.551826 -0.023039 
C 1.176349 -1.387687 -0.023472 
H 0.997516 -2.422587 -0.29235
C 1.786729 0.835455 -0.068565
H 2.273002 1.772158 -0.323225 
C 2.075831 -0.458122 -0.790787 
H 3.118295 -0.740601 -0.576233
H 1.938561 -0.44364 -1.872667

 1 2 1.0 4 1.0 17 2.0
 2 3 1.0 19 2.0
 3
 4
 5 6 1.0 9 1.0 14 1.0 15 1.0
 6 7 1.0 10 1.0 11 1.0
 7 8 2.0 12 1.0
 8 13 1.0 15 1.0
 9
 10
 11
 12
 13
 14
 15 16 2.0
 16
 17 18 1.0 21 1.0
 18
 19 20 1.0 21 1.0
 20
 21 22 1.0 23 1.0
 22
 23


