%nprocshared=4 
%mem=4GB 
# scrf=(cpcm,solvent=water)  def2tzvp olyp

tmpdir/M1_conf_0_2.gjf 

1 1
Mg                  0.69446800   -1.35578300   -2.78674200 
O                  -0.02831500    1.43658200   -0.14436500 
P                   0.02115900   -0.03863300   -0.04471900 
O                  -0.18744300   -0.76245000    1.34917900 
O                  -0.30096600   -1.02400200   -1.15717400 
H                   1.62561498   -0.25783982   -0.00315480 
H                  -0.28075974   -0.23463179    2.19074461 


