%nprocshared=4 
%mem=4GB 
# scrf=(cpcm,solvent=water)  def2tzvp olyp

tmpdir/M1_conf_0_1.gjf 

-1 1
H                  -4.29445300    1.51644500   -0.00037300 
C                  -3.32439000    1.26447600    0.49761200 
H                  -2.69137200    2.17194000    0.35657900 
O                  -2.74328500    0.10354400    0.04058300 
H                  -3.56926800    1.26286700    1.59063000 


