%nprocshared=4 
%mem=4GB 
# scrf=(cpcm,solvent=water)  def2tzvp olyp

tmpdir/M1_conf_0_0.gjf 

0 1
C                  -0.32331300    0.00605800    2.57450600 
H                   0.55774500    0.63048000    2.73803900 
H                  -0.40716600   -0.73022100    3.37370300 
H                  -1.22344500    0.61786600    2.52843700 
H                  -0.21175150   -0.62495623    1.56840225 


