%nprocshared=4 
%mem=4GB 
# scrf=(cpcm,solvent=water)  def2tzvp olyp

tmpdir/M1_ref_2.gjf 

1 1
Mg                  2.43572000    0.84584000    1.83521500 
O                  -1.30130600    0.71789800    0.46229200 
P                  -0.15561500   -0.22182200    0.43647500 
O                  -0.23590600   -1.38588700   -0.63879300 
O                   1.27644000    0.29201100    0.38032400 
H                  -0.22137174   -1.02654444    1.67562253 
H                  -1.11535325   -1.74158607   -0.95329726 


