%nprocshared=4 
%mem=4GB 
# scrf=(cpcm,solvent=water)  def2tzvp olyp

tmpdir/M2_conf_0_41.gjf 

0 1
P                   0.00000000    0.00000000    0.00000000 
O                   1.56330000    0.00000000    0.00000000 
H                   1.98138000    0.00000000    0.87771000 
H                  -0.34817000    1.22879000    0.54529000 
O                  -0.67510000   -1.11946000    0.73004000 
H                  -0.35567000   -0.00586000   -1.29037000 


