%nprocshared=4 
%mem=4GB 
# scrf=(cpcm,solvent=water)  def2tzvp olyp

tmpdir/M2_conf_0_30.gjf 

0 1
P                   0.00000000    0.00000000    0.00000000 
O                   1.56720000    0.00000000    0.00000000 
H                  -0.43857000    0.00000000   -1.31763000 
O                  -0.51971000   -1.19549000    0.73662000 
H                  -0.35578000    1.20136000    0.47202000 
H                   1.99569000    0.77336000   -0.40361000 


