%nprocshared=4 
%mem=4GB 
# scrf=(cpcm,solvent=water)  def2tzvp olyp

tmpdir/M2_conf_0_2.gjf 

0 1
P                   0.00000000    0.00000000    0.00000000 
O                   1.58440000    0.00000000    0.00000000 
O                  -0.64897000    0.00000000   -1.33235000 
H                  -0.35242000    0.85767000    0.91685000 
H                  -0.24614000   -1.32611000    0.60686000 
H                   2.10301000   -0.40581000   -0.75177000 


