%nprocshared=4 
%mem=4GB 
# scrf=(cpcm,solvent=water)  def2tzvp olyp

tmpdir/M2_conf_0_23.gjf 

0 1
O                   0.00000000    0.00000000    0.00000000 
P                   1.62580000    0.00000000    0.00000000 
O                   2.09272000    0.00000000    1.42432000 
H                  -0.53129000   -0.13705000    0.70506000 
H                   1.96639000   -1.07905000   -0.71855000 
H                   1.98696000    1.11021000   -0.64850000 


