%nprocshared=4 
%mem=4GB 
# scrf=(cpcm,solvent=water)  def2tzvp olyp

tmpdir/M2_conf_0_60.gjf 

-1 1
O                   0.00000000    0.00000000    0.00000000 
C                   1.37880000    0.00000000    0.00000000 
H                   1.84342000    0.00000000    1.01809000 
H                   1.83911000   -0.88356000   -0.50951000 
H                   1.84000000    0.88312000   -0.50946000 


