%nprocshared=4 
%mem=4GB 
# scrf=(cpcm,solvent=water)  def2tzvp olyp

tmpdir/M2_conf_0_52.gjf 

0 1
C                   0.00000000    0.00000000    0.00000000 
H                   1.11540000    0.00000000    0.00000000 
H                  -0.27563000    0.00000000   -1.08452000 
H                  -0.46660000    0.83963000    0.59913000 
H                  -0.27471000   -1.02557000    0.35373000 


