%nprocshared=4 
%mem=4GB 
# scrf=(cpcm,solvent=water)  def2tzvp olyp

tmpdir/M2_conf_0_28.gjf 

0 1
P                   0.00000000    0.00000000    0.00000000 
O                   1.55930000    0.00000000    0.00000000 
H                   1.96797000    0.00000000    0.88202000 
H                  -0.45602000    0.82193000    0.95558000 
H                  -0.37655000   -1.27331000    0.41913000 
O                  -0.54521000    0.27120000   -1.36964000 


