%nprocshared=4 
%mem=4GB 
# scrf=(cpcm,solvent=water)  def2tzvp olyp

tmpdir/M2_conf_0_54.gjf 

0 1
C                   0.00000000    0.00000000    0.00000000 
H                   1.12010000    0.00000000    0.00000000 
H                  -0.27507000    0.00000000   -1.08467000 
H                  -0.27469000    1.02542000    0.35388000 
H                  -0.46552000   -0.84066000    0.59853000 


