%nprocshared=4 
%mem=4GB 
# scrf=(cpcm,solvent=water)  def2tzvp olyp

tmpdir/M2_conf_0_25.gjf 

0 1
O                   0.00000000    0.00000000    0.00000000 
P                   1.61050000    0.00000000    0.00000000 
H                  -0.53272000    0.00000000   -0.72019000 
O                   2.14513000   -0.80120000   -1.14636000 
H                   2.03322000    1.26735000   -0.08196000 
H                   1.94619000   -0.40805000    1.23023000 


