%nprocshared=4 
%mem=4GB 
# scrf=(cpcm,solvent=water)  def2tzvp olyp

tmpdir/M2_conf_0_47.gjf 

0 1
O                   0.00000000    0.00000000    0.00000000 
C                   1.45520000    0.00000000    0.00000000 
H                   1.82466000    0.00000000    1.02622000 
H                  -0.45369000    0.60532000    0.43834000 
H                   1.83359000    0.86717000   -0.54566000 
H                   1.74908000   -0.91660000   -0.51017000 


