%nprocshared=4 
%mem=4GB 
# scrf=(cpcm,solvent=water)  def2tzvp olyp

tmpdir/M2_conf_0_26.gjf 

0 1
P                   0.00000000    0.00000000    0.00000000 
O                   1.62580000    0.00000000    0.00000000 
P                   2.54370000    0.00000000    1.33656000 
H                  -0.34059000    1.19642000   -0.49925000 
H                  -0.36116000   -0.96593000   -0.84859000 
O                  -0.51290000   -0.26874000    1.38254000 
O                   1.90139000    0.80120000    2.42625000 
H                   2.71545000   -1.26735000    1.73141000 
H                   3.74785000    0.40805000    0.91682000 


