%nprocshared=4 
%mem=4GB 
# scrf=(cpcm,solvent=water)  def2tzvp olyp

tmpdir/M2_conf_0_57.gjf 

0 1
H                   0.00000000    0.00000000    0.00000000 
C                   1.11900000    0.00000000    0.00000000 
H                   1.39314000    0.00000000    1.08500000 
H                   1.39463000   -1.02537000   -0.35326000 
H                   1.58470000    0.84059000   -0.59848000 


