%nprocshared=4 
%mem=4GB 
# scrf=(cpcm,solvent=water)  def2tzvp olyp

tmpdir/M2_conf_0_51.gjf 

0 1
H                   0.00000000    0.00000000    0.00000000 
C                   1.11920000    0.00000000    0.00000000 
H                   1.39483000    0.00000000    1.08452000 
H                   1.58490000   -0.83965000   -0.59980000 
H                   1.39429000    1.02560000   -0.35334000 


