%nprocshared=4 
%mem=4GB 
# scrf=(cpcm,solvent=water)  def2tzvp olyp

tmpdir/M2_conf_0_15.gjf 

0 1
P                   0.00000000    0.00000000    0.00000000 
O                   1.72680000    0.00000000    0.00000000 
P                   2.58419000    0.00000000    1.30924000 
O                  -0.43873000   -1.41550000    0.01359000 
H                  -0.22617000    0.68214000   -1.15344000 
H                  -0.33420000    0.81424000    0.96216000 
H                   3.23321000    1.23189000    1.30713000 
H                   3.55056000   -0.91741000    1.21950000 
O                   1.79461000   -0.16156000    2.57303000 


