%nprocshared=4 
%mem=4GB 
# scrf=(cpcm,solvent=water)  def2tzvp olyp

tmpdir/M2_conf_0_46.gjf 

0 1
O                   0.00000000    0.00000000    0.00000000 
C                   1.45520000    0.00000000    0.00000000 
H                   1.74743000    0.00000000    1.04947000 
H                  -0.45369000    0.08875000   -0.74208000 
H                   1.83359000   -0.89852000   -0.49233000 
H                   1.83396000    0.89371000   -0.49744000 


