%nprocshared=4 
%mem=4GB 
# scrf=(cpcm,solvent=water)  def2tzvp olyp

tmpdir/M2_conf_0_37.gjf 

0 1
O                   0.00000000    0.00000000    0.00000000 
P                   1.56280000    0.00000000    0.00000000 
O                   1.96688000    0.00000000    1.51017000 
H                  -0.42849000   -0.65857000    0.57208000 
H                   2.00137000   -1.22636000   -0.48184000 
O                   2.08251000    1.12278000   -0.84331000 
H                   2.92157000    0.00397000    1.69385000 


