%nprocshared=4 
%mem=4GB 
# scrf=(cpcm,solvent=water)  def2tzvp olyp

tmpdir/M2_conf_0_43.gjf 

0 1
C                   0.00000000    0.00000000    0.00000000 
H                   1.08990000    0.00000000    0.00000000 
H                  -0.32231000    0.00000000   -1.15051000 
H                  -0.37194000    0.89851000    0.49723000 
H                  -0.37680000   -0.89374000    0.49888000 


