%nprocshared=4 
%mem=4GB 
# scrf=(cpcm,solvent=water)  def2tzvp olyp

tmpdir/M2_conf_0_48.gjf 

0 1
H                   0.00000000    0.00000000    0.00000000 
C                   1.09220000    0.00000000    0.00000000 
H                   1.46086000    0.00000000    1.02512000 
H                   1.50613000    1.00660000   -0.49291000 
H                   1.47203000   -0.86923000   -0.53832000 


