%nprocshared=4 
%mem=4GB 
# scrf=(cpcm,solvent=water)  def2tzvp olyp

tmpdir/M2_conf_0_8.gjf 

0 1
O                   0.00000000    0.00000000    0.00000000 
P                   1.58670000    0.00000000    0.00000000 
O                   2.07332000    0.00000000    1.44264000 
H                  -0.51861000   -0.21722000   -0.82623000 
O                   2.23567000   -0.91019000   -0.97299000 
H                   1.83284000    1.38301000   -0.46275000 
H                   2.76745000    0.44481000    1.80860000 


