%nprocshared=4 
%mem=4GB 
# scrf=(cpcm,solvent=water)  def2tzvp olyp

tmpdir/M2_conf_0_53.gjf 

-1 1
C                   0.00000000    0.00000000    0.00000000 
O                   1.37630000    0.00000000    0.00000000 
H                  -0.46031000    0.00000000   -1.01994000 
H                  -0.46120000   -0.88250000    0.51054000 
H                  -0.46017000    0.88371000    0.50959000 


