%nprocshared=4 
%mem=4GB 
# scrf=(cpcm,solvent=water)  def2tzvp olyp

tmpdir/M2_conf_0_13.gjf 

1 1
Mg                  0.00000000    0.00000000    0.00000000 
O                   1.94100000    0.00000000    0.00000000 
P                   2.88065000    0.00000000    1.19794000 
O                   3.26623000   -1.26685000    1.86333000 
H                   3.90240000    0.83120000    0.86329000 
H                   2.20330000    0.83808000    2.21099000 


