%nprocshared=4 
%mem=4GB 
# scrf=(cpcm,solvent=water)  def2tzvp olyp

tmpdir/M2_conf_0_24.gjf 

0 1
O                   0.00000000    0.00000000    0.00000000 
P                   1.55930000    0.00000000    0.00000000 
O                   2.07441000    0.00000000    1.40761000 
H                  -0.42949000    0.16939000   -0.85547000 
H                   2.01532000    0.99189000   -0.77774000 
H                   1.93585000   -1.16765000   -0.65847000 


