%nprocshared=4 
%mem=4GB 
# scrf=(cpcm,solvent=water)  def2tzvp olyp

tmpdir/M2_conf_0_17.gjf 

0 1
P                   0.00000000    0.00000000    0.00000000 
O                   1.57050000    0.00000000    0.00000000 
H                  -0.45602000    0.00000000   -1.26044000 
H                  -0.37655000    1.23866000    0.51256000 
O                  -0.54521000   -1.09874000    0.86152000 
H                   1.99999000    0.56868000   -0.66115000 


