%nprocshared=4 
%mem=4GB 
# scrf=(cpcm,solvent=water)  def2tzvp olyp

tmpdir/M2_conf_0_10.gjf 

0 1
O                   0.00000000    0.00000000    0.00000000 
P                   1.52250000    0.00000000    0.00000000 
O                   1.76581000    0.00000000    1.70957000 
H                  -0.56863000   -0.41047000    0.56726000 
O                   2.28401000   -1.08922000   -0.65576000 
H                   1.88979000    1.26577000   -0.33136000 
H                   1.30854000   -0.45167000    2.28457000 


