%nprocshared=4 
%mem=4GB 
# scrf=(cpcm,solvent=water)  def2tzvp olyp

tmpdir/M2_conf_0_31.gjf 

0 1
P                   0.00000000    0.00000000    0.00000000 
O                   1.56660000    0.00000000    0.00000000 
H                  -0.34817000    0.00000000   -1.34435000 
O                  -0.67510000    1.12136000    0.72711000 
H                  -0.35567000   -1.17707000    0.52875000 
H                   1.99080000    0.79958000   -0.35483000 


