%nprocshared=4 
%mem=4GB 
# scrf=(cpcm,solvent=water)  def2tzvp olyp

tmpdir/M2_conf_0_44.gjf 

0 1
C                   0.00000000    0.00000000    0.00000000 
H                   1.08930000    0.00000000    0.00000000 
H                  -0.41491000    0.00000000   -1.12044000 
H                  -0.38035000   -0.86722000    0.54421000 
H                  -0.37635000    0.91658000    0.45280000 


