%nprocshared=4 
%mem=4GB 
# scrf=(cpcm,solvent=water)  def2tzvp olyp

tmpdir/M2_conf_0_45.gjf 

0 1
O                   0.00000000    0.00000000    0.00000000 
C                   1.45520000    0.00000000    0.00000000 
H                   1.84109000    0.00000000    1.02176000 
H                  -0.45369000   -0.69339000    0.27888000 
H                   1.74908000    0.91996000   -0.50408000 
H                   1.83396000   -0.86570000   -0.54474000 


