%nprocshared=4 
%mem=4GB 
# scrf=(cpcm,solvent=water)  def2tzvp olyp

tmpdir/M2_conf_0_50.gjf 

0 1
H                   0.00000000    0.00000000    0.00000000 
C                   1.08940000    0.00000000    0.00000000 
H                   1.46762000    0.00000000    1.02302000 
H                   1.41171000    1.00460000   -0.56076000 
H                   1.46134000   -0.87211000   -0.54221000 


