%nprocshared=4 
%mem=4GB 
# scrf=(cpcm,solvent=water)  def2tzvp olyp

tmpdir/M2_conf_0_18.gjf 

0 1
P                   0.00000000    0.00000000    0.00000000 
O                   1.50700000    0.00000000    0.00000000 
H                  -0.55862000    0.00000000   -1.21845000 
H                  -0.47646000   -1.15872000    0.60757000 
H                  -0.48577000    1.01265000    0.72258000 


