%nprocshared=4 
%mem=4GB 
# scrf=(cpcm,solvent=water)  def2tzvp olyp

tmpdir/M2_conf_0_29.gjf 

0 1
P                   0.00000000    0.00000000    0.00000000 
O                   1.50010000    0.00000000    0.00000000 
H                  -0.49585000    0.00000000   -1.29716000 
H                  -0.46459000    1.08568000    0.63011000 
H                  -0.60368000   -1.03922000    0.59012000 


