%nprocshared=4 
%mem=4GB 
# scrf=(cpcm,solvent=water)  def2tzvp olyp

tmpdir/M2_conf_0_3.gjf 

0 1
P                   0.00000000    0.00000000    0.00000000 
O                   1.52060000    0.00000000    0.00000000 
O                  -0.76151000    0.00000000   -1.27139000 
H                  -0.36729000   -0.93675000    0.91350000 
H                  -0.37905000    1.22476000    0.73737000 
H                   2.08923000    0.69770000   -0.05908000 


