%nprocshared=4 
%mem=4GB 
# scrf=(cpcm,solvent=water)  def2tzvp olyp

tmpdir/M2_conf_0_7.gjf 

0 1
O                   0.00000000    0.00000000    0.00000000 
P                   1.48200000    0.00000000    0.00000000 
O                   1.77532000    0.00000000    1.70170000 
H                   2.07711000   -1.14692000   -0.42108000 
H                   2.15205000    0.96978000   -0.55765000 
H                   1.85446000    0.69916000    2.20034000 


