%nprocshared=4 
%mem=4GB 
# scrf=(cpcm,solvent=water)  def2tzvp olyp

tmpdir/M2_ref_4.gjf 

0 1
P                  -0.15561500   -0.22182200    0.43647500 
O                  -0.23239200   -1.16140900    1.88329300 
O                  -1.30130600    0.71789800    0.46229200 
H                  -0.22438135   -1.21880177   -0.48445333 
H                   1.07088855    0.21825747    0.38838369 
H                   0.13548037   -0.95922488    2.63658259 


