%nprocshared=4 
%mem=4GB 
# scrf=(cpcm,solvent=water)  def2tzvp olyp

tmpdir/M2_ref_34.gjf 

0 1
O                   1.57266800   -1.93444800    3.47378700 
P                   3.17835700   -1.70913000    3.46554000 
O                   3.77337200   -3.13785000    3.24534800 
H                   0.94592704   -1.30630857    3.35069213 
O                   3.56553800   -0.65643600    2.47366200 
H                   3.56123666   -1.35039577    4.69687487 
H                   3.58676800   -3.54678400    2.38331400 


