%nprocshared=4 
%mem=4GB 
# scrf=(cpcm,solvent=water)  def2tzvp olyp

tmpdir/M2_ref_49.gjf 

0 1
H                  -2.01937300   -2.43833500   -0.28795700 
C                  -1.51638900   -1.90378800   -1.09671400 
H                  -2.14462000   -1.09086000   -1.46302100 
H                  -0.46499721   -1.47854467   -0.72071965 
H                  -1.28190200   -2.59275500   -1.90732800 


