%nprocshared=4 
%mem=4GB 
# scrf=(cpcm,solvent=water)  def2tzvp olyp

tmpdir/M2_ref_55.gjf 

0 1
H                  -2.64151700    1.02952000   31.69584200 
C                  -1.54879200    0.91579200   31.48338000 
H                  -1.08678100    0.76178000   32.49082600 
H                  -1.30257995    0.10851930   30.72878844 
H                  -1.21853600    1.94215200   31.18361500 


