%nprocshared=4 
%mem=4GB 
# scrf=(cpcm,solvent=water)  def2tzvp olyp

tmpdir/M2_ref_35.gjf 

0 1
O                   3.56553800   -0.65643600    2.47366200 
P                   3.17835700   -1.70913000    3.46554000 
O                   3.62540400   -1.29027500    4.90323600 
H                   1.80314218   -1.90210676    3.47260326 
H                   3.68796593   -2.93277725    3.27695348 
H                   3.47038700   -1.94226900    5.60712900 


