%nprocshared=4 
%mem=4GB 
# scrf=(cpcm,solvent=water)  def2tzvp olyp

tmpdir/M2_ref_29.gjf 

0 1
P                   3.17835700   -1.70913000    3.46554000 
O                   3.56553800   -0.65643600    2.47366200 
H                   1.80314218   -1.90210676    3.47260326 
H                   3.56123666   -1.35039577    4.69687487 
H                   3.68796593   -2.93277725    3.27695348 


