%nprocshared=4 
%mem=4GB 
# scrf=(cpcm,solvent=water)  def2tzvp olyp

tmpdir/M2_ref_53.gjf 

-1 1
C                  -1.54879200    0.91579200   31.48338000 
O                  -1.24893200   -0.06738000   30.56436800 
H                  -2.64151700    1.02952000   31.69584200 
H                  -1.08678100    0.76178000   32.49082600 
H                  -1.21853600    1.94215200   31.18361500 


