%nprocshared=4 
%mem=4GB 
# scrf=(cpcm,solvent=water)  def2tzvp olyp

tmpdir/M2_ref_26.gjf 

0 1
P                   0.43523600   -0.79447800    3.25039000 
O                   1.57266800   -1.93444800    3.47378700 
P                   3.17835700   -1.70913000    3.46554000 
H                  -0.13656335   -1.10874119    2.07952063 
H                  -0.44217711   -0.96024489    4.24350883 
O                   1.05873400    0.56785000    3.29536900 
O                   3.56553800   -0.65643600    2.47366200 
H                   3.56123666   -1.35039577    4.69687487 
H                   3.68796593   -2.93277725    3.27695348 


