%nprocshared=4 
%mem=4GB 
# scrf=(cpcm,solvent=water)  def2tzvp olyp

tmpdir/M2_ref_3.gjf 

0 1
P                  -0.15561500   -0.22182200    0.43647500 
O                   1.27644000    0.29201100    0.38032400 
O                  -1.30130600    0.71789800    0.46229200 
H                  -0.22438135   -1.21880177   -0.48445333 
H                  -0.22137174   -1.02654444    1.67562253 
H                   1.81518640    0.54938918    1.05644822 


