%nprocshared=4 
%mem=4GB 
# scrf=(cpcm,solvent=water)  def2tzvp olyp

tmpdir/M2_ref_28.gjf 

0 1
P                   0.43523600   -0.79447800    3.25039000 
O                  -0.58922400   -0.98802600    4.40994700 
H                  -1.15749200   -1.77473900    4.35418100 
H                  -0.13656335   -1.10874119    2.07952063 
H                   1.40940556   -1.77082127    3.44172149 
O                   1.05873400    0.56785000    3.29536900 


