%chk=N3-opt-sp.chk
%nprocshared=24
%mem=24GB
#p b3lyp/6-31g(d) em=gd3

title

0 1
 N                  2.23400200   -0.78778000   -0.10684500
 N                  2.38765400    0.38371000   -0.46803700
 N                  2.61107400    1.42613900   -0.87893800
 C                  1.17704800   -0.98958900    0.93110800
 H                  1.16533800   -2.06934300    1.09205100
 H                  1.49308700   -0.51321900    1.86869100
 C                 -0.18046800   -0.48289700    0.50364000
 C                 -0.98562800   -1.24790700   -0.35030900
 C                 -0.62371300    0.78269300    0.90420000
 C                 -2.21518100   -0.75943800   -0.78871700
 H                 -0.64118400   -2.22737200   -0.67365300
 C                 -1.85460000    1.27493300    0.46559400
 H                 -0.00423600    1.38445900    1.56554300
 C                 -2.65218800    0.50414100   -0.38094100
 H                 -2.83371100   -1.36325400   -1.44724100
 H                 -2.18884100    2.25796800    0.78580700
 H                 -3.61118200    0.88465300   -0.72190400

