%chk=24Cl_pyridine_react.chk
%nprocshared=16
%mem=16GB
# b3lyp/6-31g(d) freq 5D

title card

0 1
N -1.241470 -1.347334 0.000000
C -0.076205 -2.009653 0.000000
C 1.171482 -1.389965 0.000000
C 1.192036 0.005480 0.000000
C 0.000000 0.723656 0.000000
C -1.179194 -0.027564 0.000000
H -0.016397 1.805889 0.000000
Cl -2.709464 0.838676 0.000000
Cl 2.716332 0.859941 0.000000
H 2.088188 -1.967695 0.000000
H -0.146982 -3.095063 0.000000

