%chk=TSj.chk
%nprocshared=8
%mem=8GB
# M062X/def2TZVPP geom=connectivity

title card

0 1
 N                 -0.17560917    0.07640956    0.15457459
 H                  0.05920352    0.13708033   -0.83061422
 H                  0.37916120   -0.63753952    0.60830611
 B                 -2.05211806    1.55160535    0.07892296
 C                 -1.64899912   -0.01197565    0.33599115
 H                 -2.09087752   -0.70697336   -0.37504057
 H                 -1.83780775   -0.35483560    1.35187007
 O                 -3.16808901    2.16808487    0.64760016
 O                 -1.77847601    1.87257490   -1.26446079
 C                 -3.44646592    1.93918187    2.00056366
 H                 -2.56314553    2.12011352    2.62372711
 H                 -4.23655722    2.62057623    2.31274297
 H                 -3.78896703    0.91399820    2.17654657
 C                 -1.92433371    3.21987361   -1.64466635
 H                 -2.95435676    3.55825855   -1.52051693
 H                 -1.27550149    3.86533442   -1.04214888
 H                 -1.64045245    3.31356447   -2.69212659
 H                 -0.84847968    2.07366807    0.84708803
 H                 -0.19986417    1.24864943    0.60922607

 1 2 1.0 3 1.0 5 1.0
 2
 3
 4 5 1.0 8 1.0 9 1.0
 5 6 1.0 7 1.0
 6
 7
 8 10 1.0
 9 14 1.0
 10 11 1.0 12 1.0 13 1.0
 11
 12
 13
 14 15 1.0 16 1.0 17 1.0
 15
 16
 17
 18 19 1.0
 19

