%nprocshared=4 
%mem=4GB 
# b3lyp/6-31+g(d,p) scrf=(iefpcm,solvent=acetonitrile) 

tmpdir/M1_conf_0_3.gjf 

0 1
C                  -6.53983000   -0.63116000    0.46307400 
H                  -7.09303600    0.24153200    0.82379200 
H                  -7.07085700   -1.05159000   -0.39545300 
H                  -6.56342500   -1.38223700    1.26398200 
H                  -5.51263504   -0.37324376    0.20891256 


