%nprocshared=4 
%mem=4GB 
# b3lyp/6-31+g(d,p) scrf=(iefpcm,solvent=acetonitrile) 

tmpdir/M1_conf_0_7.gjf 

0 2
C                  -0.90850200   -0.82113600    0.56830900 
H                  -0.26655845    0.01462296    0.83724206 
H                  -1.42729589   -1.29488536    1.40376248 
H                  -0.54247990   -1.49565153   -0.20838376 


