%nprocshared=4 
%mem=4GB 
# b3lyp/6-31+g(d,p) scrf=(iefpcm,solvent=acetonitrile) 

tmpdir/M1_conf_0_6.gjf 

0 1
C                  -0.02170000    0.33340900    0.93982200 
O                   0.59155900    0.38764300    2.00632600 
H                  -0.66364355   -0.50234996    0.67088894 
H                   0.01886760    1.12355285    0.19909860 


