%nprocshared=4 
%mem=4GB 
# b3lyp/6-31+g(d,p) scrf=(iefpcm,solvent=acetonitrile) 

tmpdir/M1_conf_0_9.gjf 

0 1
C                  -0.40286700   -1.75293400   -0.50464000 
H                  -1.19568800   -2.43831100   -0.81988200 
H                  -0.01015400   -1.24914700   -1.39113500 
H                  -0.76888910   -1.07841847    0.27205276 
H                   0.44033417   -2.51679253   -0.24653591 


