%nprocshared=4 
%mem=4GB 
# b3lyp/6-31+g(d,p) scrf=(iefpcm,solvent=acetonitrile) 

tmpdir/M1_ref_0.gjf 

0 1
C                  -5.04005100   -0.33250400   -0.26783000 
C                  -5.18318200   -0.21004200   -1.65332900 
C                  -5.79450200   -1.24517600    0.47550200 
C                  -6.11039500   -1.02469600   -2.30653500 
H                  -4.59274600    0.51387800   -2.20412700 
C                  -6.71703900   -2.05366700   -0.19243000 
H                  -5.67248400   -1.31171300    1.55098500 
C                  -6.87285700   -1.94425900   -1.57826200 
H                  -6.23844700   -0.93745900   -3.38068100 
H                  -7.31484100   -2.76336900    0.37042000 
H                  -7.59263300   -2.57453600   -2.09132600 
H                  -4.28780824    0.31437424    0.26146476 


