%nprocshared=4 
%mem=4GB 
# b3lyp/6-31+g(d,p) scrf=(iefpcm,solvent=acetonitrile) 

tmpdir/M1_ref_4.gjf 

0 1
N                   1.26990200    0.87148300    0.31974100 
H                   1.66363747    0.33342543    1.14877347 
H                   1.90173155    1.34222987   -0.30756253 
H                   0.32285297    0.76966432    0.08069087 


