%nprocshared=4 
%mem=4GB 
# b3lyp/6-31+g(d,p) scrf=(iefpcm,solvent=acetonitrile) 

tmpdir/M1_ref_2.gjf 

0 1
C                   3.16165000   -1.04264100    0.85348300 
C                   4.51482000   -0.71564300    0.93180900 
C                   2.73511900   -2.20513100    0.20377800 
C                   5.45064400   -1.55467200    0.32379300 
H                   4.82477800    0.17845000    1.46244500 
C                   3.68324500   -3.03143100   -0.39849200 
H                   1.68100100   -2.46534500    0.16134200 
C                   5.05367700   -2.72182500   -0.34813000 
H                   6.50545100   -1.29900600    0.37565500 
H                   3.35480000   -3.93225100   -0.90956600 
H                   2.39099503   -0.40895372    1.38698451 
H                   5.79204506   -3.38892142   -0.79952070 


