%nprocshared=4 
%mem=4GB 
# b3lyp/6-31+g(d,p) scrf=(iefpcm,solvent=acetonitrile) 

tmpdir/M1_ref_7.gjf 

0 2
C                  -1.06419800    0.38534800    1.02362500 
H                  -0.35367638    0.63198971    0.26695276 
H                  -0.99519574    0.69695559    2.05895499 
H                  -1.94463665   -0.13481259    0.68913031 


