%nprocshared=2 
%mem=2GB 
# b3lyp/6-31+g(d,p) scrf=(iefpcm,solvent=acetonitrile) 

tmpdir/M2_conf_0_54.gjf 

0 1
C                   0.00000000    0.00000000    0.00000000 
N                   1.43840000    0.00000000    0.00000000 
C                   2.20185000    0.00000000    1.17650000 
H                  -0.48263000    0.84288000   -0.28809000 
O                  -0.63837000   -1.00434000    0.32943000 
H                   1.95922000   -0.18019000   -0.91004000 
H                   3.23341000    0.26911000    1.13494000 
O                   1.67331000   -0.26718000    2.26263000 


