%nprocshared=2 
%mem=2GB 
# b3lyp/6-31+g(d,p) scrf=(iefpcm,solvent=acetonitrile) 

tmpdir/M2_conf_0_33.gjf 

0 1
C                   0.00000000    0.00000000    0.00000000 
C                   1.40400000    0.00000000    0.00000000 
C                   2.05882000    0.00000000    1.24409000 
H                  -0.52402000    0.00091000    0.86424000 
H                  -0.53556000    0.00215000   -0.94545000 
H                   1.96580000    0.02568000   -0.93686000 
O                   1.42343000    0.00184000    2.29656000 
H                   3.14475000    0.00445000    1.27917000 


