%nprocshared=2 
%mem=2GB 
# b3lyp/6-31+g(d,p) scrf=(iefpcm,solvent=acetonitrile) 

tmpdir/M2_conf_0_5.gjf 

0 2
C                   0.00000000    0.00000000    0.00000000 
C                   1.49670000    0.00000000    0.00000000 
C                   2.14428000    0.00000000    1.33780000 
H                  -0.39542000    0.95986000    0.36193000 
H                  -0.42186000   -0.19868000   -0.98622000 
H                  -0.37391000   -0.76328000    0.69259000 
H                   2.10360000   -0.08943000   -0.87289000 
H                   3.22780000    0.10245000    1.26932000 
H                   1.72627000    0.77337000    1.99131000 
H                   1.97289000   -0.97807000    1.95376000 


