%nprocshared=2 
%mem=2GB 
# b3lyp/6-31+g(d,p) scrf=(iefpcm,solvent=acetonitrile) 

tmpdir/M2_conf_0_50.gjf 

0 1
N                   0.00000000    0.00000000    0.00000000 
C                   1.43470000    0.00000000    0.00000000 
H                  -0.52082000    0.00000000   -0.92770000 
H                  -0.49278000    0.16498000    0.83323000 
H                   1.91733000   -0.88276000   -0.11904000 
O                   2.07307000    1.04917000    0.12826000 


