%nprocshared=2 
%mem=2GB 
# b3lyp/6-31+g(d,p) scrf=(iefpcm,solvent=acetonitrile) 

tmpdir/M2_conf_0_55.gjf 

0 1
C                   0.00000000    0.00000000    0.00000000 
C                   1.39960000    0.00000000    0.00000000 
H                  -0.53861000    0.00000000   -0.99406000 
C                  -0.70901000    0.01497000    1.20791000 
C                   2.09240000    0.01717000    1.21449000 
H                   1.93194000   -0.01764000   -0.94458000 


