%nprocshared=2 
%mem=2GB 
# b3lyp/6-31+g(d,p) scrf=(iefpcm,solvent=acetonitrile) 

tmpdir/M2_conf_0_58.gjf 

0 1
N                   0.00000000    0.00000000    0.00000000 
C                   1.43840000    0.00000000    0.00000000 
C                   2.13684000    0.00000000    1.21414000 
H                  -0.52082000    0.92085000   -0.11258000 
H                  -0.49278000   -0.80710000    0.26474000 
H                   1.92103000    0.01104000   -0.89068000 
H                   3.14721000    0.00506000    1.20833000 
H                   1.58952000   -0.01281000    2.14973000 


