%nprocshared=2 
%mem=2GB 
# b3lyp/6-31+g(d,p) scrf=(iefpcm,solvent=acetonitrile) 

tmpdir/M2_conf_0_133.gjf 

0 1
C                   0.00000000    0.00000000    0.00000000 
C                   1.39640000    0.00000000    0.00000000 
H                   1.93215000    0.00000000    0.94385000 
O                  -0.59216000    0.00774000   -1.08113000 
H                  -0.55677000    0.00617000    0.93065000 
O                   2.01534000    0.00447000   -1.06685000 


