%nprocshared=2 
%mem=2GB 
# b3lyp/6-31+g(d,p) scrf=(iefpcm,solvent=acetonitrile) 

tmpdir/M2_conf_0_0.gjf 

0 2
C                   0.00000000    0.00000000    0.00000000 
C                   1.50250000    0.00000000    0.00000000 
H                  -0.61629000    0.00000000   -0.89103000 
H                  -0.46928000   -0.09565000    0.96343000 
H                   2.04669000    0.51215000   -0.81046000 
O                   2.12329000   -0.60870000    0.88006000 


