%nprocshared=2 
%mem=2GB 
# b3lyp/6-31+g(d,p) scrf=(iefpcm,solvent=acetonitrile) 

tmpdir/M2_conf_0_140.gjf 

0 1
C                   0.00000000    0.00000000    0.00000000 
H                   1.08560000    0.00000000    0.00000000 
O                  -0.61297000    0.00000000   -1.07030000 
H                  -0.50293000   -0.00337000    0.87887000 


