%nprocshared=2 
%mem=2GB 
# b3lyp/6-31+g(d,p) scrf=(iefpcm,solvent=acetonitrile) 

tmpdir/M2_conf_0_23.gjf 

0 1
C                   0.00000000    0.00000000    0.00000000 
H                   1.08690000    0.00000000    0.00000000 
H                  -0.49370000    0.00000000   -0.88192000 
O                  -0.61009000    0.00357000    1.07700000 


