%nprocshared=2 
%mem=2GB 
# b3lyp/6-31+g(d,p) scrf=(iefpcm,solvent=acetonitrile) 

tmpdir/M2_conf_0_29.gjf 

0 1
C                   0.00000000    0.00000000    0.00000000 
C                   1.39440000    0.00000000    0.00000000 
C                   2.13170000    0.00000000    1.19706000 
H                  -0.49185000    0.01158000    0.88470000 
H                  -0.54429000   -0.00837000   -0.94042000 
H                   1.92562000   -0.00612000   -0.94776000 
O                   1.51355000    0.00190000    2.26945000 
H                   3.22390000   -0.02724000    1.17819000 


