%nprocshared=2 
%mem=2GB 
# b3lyp/6-31+g(d,p) scrf=(iefpcm,solvent=acetonitrile) 

tmpdir/M2_conf_0_62.gjf 

0 1
C                   0.00000000    0.00000000    0.00000000 
C                   1.39950000    0.00000000    0.00000000 
C                   2.09018000    0.00000000    1.21581000 
H                  -0.53861000    0.01405000   -0.99396000 
O                  -0.62504000   -0.00186000    1.06492000 
H                   1.93184000   -0.00445000   -0.94473000 
H                   1.57946000   -0.00611000    2.08912000 
H                   3.17598000    0.00082000    1.21714000 


