%nprocshared=2 
%mem=2GB 
# b3lyp/6-31+g(d,p) scrf=(iefpcm,solvent=acetonitrile) 

tmpdir/M2_conf_0_118.gjf 

0 1
S                   0.00000000    0.00000000    0.00000000 
C                   1.79900000    0.00000000    0.00000000 
C                   2.47275000    0.00000000    1.22505000 
H                  -0.33282000    1.38372000    0.03454000 
O                  -0.47001000   -0.58162000   -1.27684000 
O                  -0.46448000   -0.61041000    1.26946000 
O                   2.39625000    0.01261000   -1.07828000 
O                   3.70410000    0.01169000    1.22250000 
H                   1.91856000   -0.02333000    2.15685000 


