%nprocshared=2 
%mem=2GB 
# b3lyp/6-31+g(d,p) scrf=(iefpcm,solvent=acetonitrile) 

tmpdir/M2_conf_0_134.gjf 

0 1
C                   0.00000000    0.00000000    0.00000000 
C                   1.39900000    0.00000000    0.00000000 
H                   1.94575000    0.00000000    0.93752000 
H                  -0.51271000   -0.00640000   -0.87318000 
H                  -0.53951000    0.00329000    0.94204000 
H                   1.90628000   -0.00366000   -0.87440000 


