%nprocshared=2 
%mem=2GB 
# b3lyp/6-31+g(d,p) scrf=(iefpcm,solvent=acetonitrile) 

tmpdir/M2_conf_0_71.gjf 

0 1
C                   0.00000000    0.00000000    0.00000000 
H                   1.08560000    0.00000000    0.00000000 
O                  -0.61024000    0.00000000   -1.07117000 
H                  -0.50952000   -0.00534000    0.87402000 


