%nprocshared=2 
%mem=2GB 
# b3lyp/6-31+g(d,p) scrf=(iefpcm,solvent=acetonitrile) 

tmpdir/M2_conf_0_73.gjf 

0 1
C                   0.00000000    0.00000000    0.00000000 
C                   1.39830000    0.00000000    0.00000000 
H                   1.93627000    0.00000000    0.94316000 
H                  -0.50195000   -0.00077000   -0.88001000 
H                  -0.55688000    0.00520000    0.93047000 
H                   1.90537000    0.00535000   -0.87543000 


