%nprocshared=2 
%mem=2GB 
# b3lyp/6-31+g(d,p) scrf=(iefpcm,solvent=acetonitrile) 

tmpdir/M2_conf_0_127.gjf 

0 1
C                   0.00000000    0.00000000    0.00000000 
C                   1.39810000    0.00000000    0.00000000 
C                   2.06990000    0.00000000    1.22452000 
H                  -0.54688000   -0.01063000   -0.98250000 
O                  -0.65177000   -0.00128000    1.04630000 
H                   1.94750000    0.01322000   -0.93483000 
H                   1.54670000   -0.00122000    2.09149000 
H                   3.15505000    0.00576000    1.24120000 


