%nprocshared=2 
%mem=2GB 
# b3lyp/6-31+g(d,p) scrf=(iefpcm,solvent=acetonitrile) 

tmpdir/M2_conf_0_28.gjf 

0 1
C                   0.00000000    0.00000000    0.00000000 
H                   1.08660000    0.00000000    0.00000000 
O                  -0.60109000    0.00000000   -1.07244000 
H                  -0.50284000   -0.00556000    0.88478000 


