%nprocshared=2 
%mem=2GB 
# b3lyp/6-31+g(d,p) scrf=(iefpcm,solvent=acetonitrile) 

tmpdir/M2_conf_0_60.gjf 

0 1
C                   0.00000000    0.00000000    0.00000000 
C                   1.39650000    0.00000000    0.00000000 
H                  -0.50195000    0.00000000   -0.88001000 
H                  -0.55688000    0.00438000    0.93048000 
H                   1.90357000    0.00611000   -0.87543000 
H                   1.93398000   -0.00082000    0.94344000 


