%nprocshared=2 
%mem=2GB 
# b3lyp/6-31+g(d,p) scrf=(iefpcm,solvent=acetonitrile) 

tmpdir/M2_conf_0_49.gjf 

0 1
O                   0.00000000    0.00000000    0.00000000 
S                   1.51100000    0.00000000    0.00000000 
N                   1.99960000    0.00000000    1.71184000 
H                   1.88865000   -1.27567000   -0.36098000 
H                   1.70252000   -0.75432000    2.30933000 
H                   2.68147000    0.63506000    2.02179000 


