%nprocshared=2 
%mem=2GB 
# b3lyp/6-31+g(d,p) scrf=(iefpcm,solvent=acetonitrile) 

tmpdir/M2_conf_0_103.gjf 

0 1
H                   0.00000000    0.00000000    0.00000000 
C                   1.09050000    0.00000000    0.00000000 
H                   1.43608000    0.00000000    1.03946000 
H                   1.49545000   -0.81261000   -0.57727000 
H                   1.39135000    1.06047000   -0.38766000 


