%nprocshared=2 
%mem=2GB 
# b3lyp/6-31+g(d,p) scrf=(iefpcm,solvent=acetonitrile) 

tmpdir/M2_conf_0_112.gjf 

0 1
O                   0.00000000    0.00000000    0.00000000 
S                   1.47970000    0.00000000    0.00000000 
O                   2.19560000    0.00000000    1.29899000 
H                   1.94741000    1.11602000   -0.74993000 
H                   1.91486000   -1.07810000   -0.72473000 


