%nprocshared=2 
%mem=2GB 
# b3lyp/6-31+g(d,p) scrf=(iefpcm,solvent=acetonitrile) 

tmpdir/M2_conf_0_35.gjf 

0 1
C                   0.00000000    0.00000000    0.00000000 
C                   1.40590000    0.00000000    0.00000000 
C                   2.18966000    0.00000000    1.29008000 
O                  -0.63539000    0.03049000   -1.05203000 
H                  -0.53683000   -0.02127000    0.94437000 
O                   1.99482000    0.02983000   -1.08832000 
H                   2.28337000    1.01916000    1.68498000 
H                   1.69329000   -0.60158000    2.05725000 
H                   3.20027000   -0.39056000    1.14292000 


