%nprocshared=2 
%mem=2GB 
# b3lyp/6-31+g(d,p) scrf=(iefpcm,solvent=acetonitrile) 

tmpdir/M2_conf_0_1.gjf 

0 2
C                   0.00000000    0.00000000    0.00000000 
C                   1.50800000    0.00000000    0.00000000 
H                  -0.60690000    0.00000000   -0.87746000 
H                  -0.52538000    0.09570000    0.93401000 
H                   1.90342000   -0.91797000    0.45788000 
H                   1.92986000    0.09712000   -1.00133000 
H                   1.88191000    0.82990000    0.61119000 


