%nprocshared=2 
%mem=2GB 
# b3lyp/6-31+g(d,p) scrf=(iefpcm,solvent=acetonitrile) 

tmpdir/M2_conf_0_104.gjf 

0 1
H                   0.00000000    0.00000000    0.00000000 
C                   1.09050000    0.00000000    0.00000000 
S                   1.42185000    0.00000000    1.83970000 
H                   1.49545000    0.82118000   -0.56501000 
H                   1.47412000   -0.96366000   -0.35227000 
O                   0.98233000    1.29146000    2.41282000 
O                   2.82744000   -0.42531000    2.04774000 
H                   0.59990000   -0.98849000    2.31318000 


