%nprocshared=2 
%mem=2GB 
# b3lyp/6-31+g(d,p) scrf=(iefpcm,solvent=acetonitrile) 

tmpdir/M2_conf_0_100.gjf 

0 2
C                   0.00000000    0.00000000    0.00000000 
C                   1.48630000    0.00000000    0.00000000 
H                   1.86677000    0.00000000    1.02197000 
H                  -0.46535000    0.18598000    0.94188000 
H                  -0.52904000   -0.09587000   -0.94057000 
H                   1.89239000   -0.83651000   -0.57901000 
H                   1.96604000    0.93017000   -0.51964000 


