%nprocshared=2 
%mem=2GB 
# b3lyp/6-31+g(d,p) scrf=(iefpcm,solvent=acetonitrile) 

tmpdir/M2_conf_0_65.gjf 

0 1
C                   0.00000000    0.00000000    0.00000000 
C                   1.39710000    0.00000000    0.00000000 
C                  -0.69144000    0.00000000   -1.21814000 
H                  -0.55278000   -0.00749000    0.93244000 
C                   2.10212000    0.01266000   -1.20934000 
H                   1.93375000   -0.00807000    0.94388000 


