%nprocshared=2 
%mem=2GB 
# b3lyp/6-31+g(d,p) scrf=(iefpcm,solvent=acetonitrile) 

tmpdir/M2_conf_0_27.gjf 

0 1
C                   0.00000000    0.00000000    0.00000000 
C                   1.41070000    0.00000000    0.00000000 
C                  -0.72067000    0.00000000   -1.19373000 
H                  -0.53683000    0.00610000    0.94459000 
C                   2.07869000   -0.00216000   -1.23491000 
H                   1.96742000    0.02724000    0.93985000 


