%nprocshared=2 
%mem=2GB 
# b3lyp/6-31+g(d,p) scrf=(iefpcm,solvent=acetonitrile) 

tmpdir/M2_conf_0_67.gjf 

0 1
C                   0.00000000    0.00000000    0.00000000 
C                   1.40070000    0.00000000    0.00000000 
C                   2.08951000    0.00000000    1.21400000 
H                  -0.58450000   -0.00557000   -0.96777000 
H                  -0.51282000   -0.00610000    0.87370000 
H                   1.93876000    0.00756000   -0.94100000 
O                   1.46892000   -0.01117000    2.28077000 
H                   3.17528000    0.00807000    1.21497000 


