%nprocshared=2 
%mem=2GB 
# b3lyp/6-31+g(d,p) scrf=(iefpcm,solvent=acetonitrile) 

tmpdir/M2_conf_0_89.gjf 

0 1
C                   0.00000000    0.00000000    0.00000000 
H                   1.09450000    0.00000000    0.00000000 
H                  -0.41896000    0.00000000   -0.99911000 
H                  -0.34921000   -0.86940000    0.57522000 
H                  -0.34244000    0.88501000    0.54916000 


