%nprocshared=2 
%mem=2GB 
# b3lyp/6-31+g(d,p) scrf=(iefpcm,solvent=acetonitrile) 

tmpdir/M2_conf_0_19.gjf 

0 1
C                   0.00000000    0.00000000    0.00000000 
C                   1.39840000    0.00000000    0.00000000 
C                   2.10779000    0.00000000    1.20047000 
O                  -0.63571000   -0.02552000    1.05186000 
H                  -0.53968000   -0.05689000   -0.99276000 
H                   1.95593000    0.00391000   -0.93266000 
H                   1.62537000   -0.01140000    2.09649000 
H                   3.19399000    0.00629000    1.17564000 


