%nprocshared=2 
%mem=2GB 
# b3lyp/6-31+g(d,p) scrf=(iefpcm,solvent=acetonitrile) 

tmpdir/M2_conf_0_106.gjf 

0 1
S                   0.00000000    0.00000000    0.00000000 
O                   1.48330000    0.00000000    0.00000000 
H                  -0.46771000    0.00000000   -1.34458000 
O                  -0.70795000   -1.08179000    0.72693000 
H                  -0.43516000    1.20284000    0.49062000 


