%nprocshared=2 
%mem=2GB 
# b3lyp/6-31+g(d,p) scrf=(iefpcm,solvent=acetonitrile) 

tmpdir/M2_conf_0_25.gjf 

0 1
C                   0.00000000    0.00000000    0.00000000 
C                   1.39620000    0.00000000    0.00000000 
H                   1.92299000    0.00000000    0.95036000 
O                  -0.59635000    0.00919000   -1.07492000 
H                  -0.56055000   -0.01086000    0.92880000 
O                   2.03797000   -0.00351000   -1.05843000 


