%nprocshared=2 
%mem=2GB 
# b3lyp/6-31+g(d,p) scrf=(iefpcm,solvent=acetonitrile) 

tmpdir/M2_conf_0_38.gjf 

0 1
C                   0.00000000    0.00000000    0.00000000 
H                   1.09820000    0.00000000    0.00000000 
H                  -0.39870000    0.00000000   -1.01736000 
H                  -0.33060000    0.89319000    0.54435000 
H                  -0.34713000   -0.87118000    0.56337000 


