%nprocshared=2 
%mem=2GB 
# b3lyp/6-31+g(d,p) scrf=(iefpcm,solvent=acetonitrile) 

tmpdir/M2_conf_0_83.gjf 

0 1
C                   0.00000000    0.00000000    0.00000000 
C                   1.39990000    0.00000000    0.00000000 
H                   1.94236000    0.00000000    0.94070000 
H                  -0.50886000    0.00259000   -0.87290000 
H                  -0.54520000   -0.00098000    0.93900000 
H                   1.90544000   -0.00199000   -0.87633000 


