%nprocshared=2 
%mem=2GB 
# b3lyp/6-31+g(d,p) scrf=(iefpcm,solvent=acetonitrile) 

tmpdir/M2_conf_0_68.gjf 

0 1
C                   0.00000000    0.00000000    0.00000000 
C                   1.40070000    0.00000000    0.00000000 
H                   1.93728000    0.00000000    0.94188000 
H                  -0.58450000    0.01317000    0.96770000 
H                  -0.51282000   -0.00091000   -0.87372000 
H                   1.89947000   -0.00705000   -0.87868000 


