%nprocshared=2 
%mem=2GB 
# b3lyp/6-31+g(d,p) scrf=(iefpcm,solvent=acetonitrile) 

tmpdir/M2_conf_0_46.gjf 

0 1
S                   0.00000000    0.00000000    0.00000000 
N                   1.79320000    0.00000000    0.00000000 
H                  -0.23155000    0.00000000   -1.35891000 
O                  -0.45185000   -1.35352000    0.49693000 
H                   2.28621000   -0.68208000   -0.55313000 
H                   2.27840000    0.75452000    0.39950000 


