%nprocshared=2 
%mem=2GB 
# b3lyp/6-31+g(d,p) scrf=(iefpcm,solvent=acetonitrile) 

tmpdir/M2_conf_0_32.gjf 

0 1
C                   0.00000000    0.00000000    0.00000000 
C                   1.50460000    0.00000000    0.00000000 
O                  -0.63640000    0.00000000   -1.06167000 
H                  -0.51851000    0.02460000    0.87536000 
H                   1.89075000    1.02227000    0.09627000 
H                   1.90253000   -0.57838000    0.83903000 
H                   1.90356000   -0.41682000   -0.92877000 


