%nprocshared=2 
%mem=2GB 
# b3lyp/6-31+g(d,p) scrf=(iefpcm,solvent=acetonitrile) 

tmpdir/M2_conf_0_135.gjf 

0 1
C                   0.00000000    0.00000000    0.00000000 
C                   1.39960000    0.00000000    0.00000000 
C                  -0.70130000    0.00000000   -1.20787000 
H                  -0.54658000   -0.00458000    0.93760000 
C                   2.10796000   -0.00274000   -1.20641000 
H                   1.93879000   -0.00148000    0.94223000 


