%nprocshared=2 
%mem=2GB 
# b3lyp/6-31+g(d,p) scrf=(iefpcm,solvent=acetonitrile) 

tmpdir/M2_conf_0_92.gjf 

0 2
C                   0.00000000    0.00000000    0.00000000 
C                   1.49670000    0.00000000    0.00000000 
H                   1.87481000    0.00000000    1.02328000 
H                  -0.60690000    0.08471000    0.87336000 
H                  -0.52538000   -0.18542000   -0.92041000 
H                   1.89212000    0.86938000   -0.54452000 
H                   1.87061000   -0.88512000   -0.52806000 


