%nprocshared=2 
%mem=2GB 
# b3lyp/6-31+g(d,p) scrf=(iefpcm,solvent=acetonitrile) 

tmpdir/M2_conf_0_76.gjf 

0 1
C                   0.00000000    0.00000000    0.00000000 
H                   1.08560000    0.00000000    0.00000000 
H                  -0.49939000    0.00000000   -0.87836000 
O                  -0.61971000   -0.00205000    1.06734000 


