%nprocshared=2 
%mem=2GB 
# b3lyp/6-31+g(d,p) scrf=(iefpcm,solvent=acetonitrile) 

tmpdir/M2_conf_0_128.gjf 

0 1
C                   0.00000000    0.00000000    0.00000000 
C                   1.39810000    0.00000000    0.00000000 
H                   1.95010000    0.00000000    0.93339000 
H                  -0.54688000    0.02452000    0.98225000 
O                  -0.65177000   -0.01351000   -1.04621000 
O                   1.98926000   -0.01527000   -1.08011000 


