%nprocshared=2 
%mem=2GB 
# b3lyp/6-31+g(d,p) scrf=(iefpcm,solvent=acetonitrile) 

tmpdir/M2_conf_0_18.gjf 

0 1
C                   0.00000000    0.00000000    0.00000000 
H                   1.08600000    0.00000000    0.00000000 
H                  -0.51940000    0.00000000   -0.86889000 
O                  -0.61581000    0.00446000    1.06404000 


