%nprocshared=2 
%mem=2GB 
# b3lyp/6-31+g(d,p) scrf=(iefpcm,solvent=acetonitrile) 

tmpdir/M2_conf_0_11.gjf 

0 1
C                   0.00000000    0.00000000    0.00000000 
C                   1.39840000    0.00000000    0.00000000 
S                   2.12129000    0.00000000    1.65937000 
O                  -0.59734000   -0.06148000   -1.07277000 
H                  -0.55753000    0.05743000    0.93090000 
O                   2.03411000   -0.08585000   -1.04866000 
O                   3.58775000   -0.31230000    1.47205000 
H                   2.01455000    1.41700000    1.97248000 


