%nprocshared=2 
%mem=2GB 
# b3lyp/6-31+g(d,p) scrf=(iefpcm,solvent=acetonitrile) 

tmpdir/M2_conf_0_113.gjf 

0 1
O                   0.00000000    0.00000000    0.00000000 
S                   1.47970000    0.00000000    0.00000000 
C                   2.02067000    0.00000000    1.71574000 
H                   1.94741000   -1.24499000   -0.50782000 
O                   2.18765000    1.08166000   -0.72712000 
O                   1.26940000   -0.45846000    2.57884000 
H                   2.93622000    0.36659000    1.94317000 


