%nprocshared=2 
%mem=2GB 
# b3lyp/6-31+g(d,p) scrf=(iefpcm,solvent=acetonitrile) 

tmpdir/M2_conf_0_15.gjf 

0 1
C                   0.00000000    0.00000000    0.00000000 
C                   1.39430000    0.00000000    0.00000000 
H                   1.93018000    0.00000000    0.94332000 
H                  -0.52349000   -0.02329000   -0.86612000 
H                  -0.56929000   -0.05492000    0.97620000 
H                   1.88461000   -0.00278000   -0.88380000 


