%nprocshared=2 
%mem=2GB 
# b3lyp/6-31+g(d,p) scrf=(iefpcm,solvent=acetonitrile) 

tmpdir/M2_conf_0_84.gjf 

0 1
C                   0.00000000    0.00000000    0.00000000 
O                   1.23140000    0.00000000    0.00000000 
H                  -0.53538000    0.00000000   -0.92284000 
H                  -0.55553000    0.03971000    0.95137000 


