%nprocshared=2 
%mem=2GB 
# b3lyp/6-31+g(d,p) scrf=(iefpcm,solvent=acetonitrile) 

tmpdir/M2_conf_0_141.gjf 

0 1
C                   0.00000000    0.00000000    0.00000000 
C                   1.39900000    0.00000000    0.00000000 
C                   2.10705000    0.00000000    1.20636000 
H                  -0.50728000    0.00275000    0.87440000 
H                  -0.54675000   -0.00687000   -0.93750000 
H                   1.93851000   -0.00362000   -0.94204000 
O                   1.50162000    0.00242000    2.27864000 
H                   3.19233000   -0.00671000    1.20315000 


