%nprocshared=2 
%mem=2GB 
# b3lyp/6-31+g(d,p) scrf=(iefpcm,solvent=acetonitrile) 

tmpdir/M2_conf_0_69.gjf 

0 1
C                   0.00000000    0.00000000    0.00000000 
C                   1.39580000    0.00000000    0.00000000 
H                   1.95020000    0.00000000    0.93150000 
O                  -0.62157000   -0.00261000   -1.06625000 
H                  -0.53665000    0.00049000    0.94391000 
O                   2.00534000    0.00862000   -1.07383000 


