%nprocshared=2 
%mem=2GB 
# b3lyp/6-31+g(d,p) scrf=(iefpcm,solvent=acetonitrile) 

tmpdir/M2_conf_0_47.gjf 

0 1
C                   0.00000000    0.00000000    0.00000000 
S                   1.81000000    0.00000000    0.00000000 
O                   2.28519000    0.00000000    1.43433000 
O                  -0.61855000   -0.14381000    1.05257000 
H                  -0.48287000    0.19120000   -0.86892000 
H                   2.05442000   -1.33599000   -0.52222000 


