%nprocshared=2 
%mem=2GB 
# b3lyp/6-31+g(d,p) scrf=(iefpcm,solvent=acetonitrile) 

tmpdir/M2_conf_0_81.gjf 

0 1
C                   0.00000000    0.00000000    0.00000000 
C                   1.39760000    0.00000000    0.00000000 
C                   2.09882000    0.00000000    1.21162000 
O                  -0.61789000   -0.00372000    1.06677000 
H                  -0.54683000   -0.00246000   -0.93804000 
H                   1.94121000   -0.00213000   -0.94004000 
H                   1.59822000    0.00457000    2.08927000 
H                   3.18461000   -0.00311000    1.21313000 


