%nprocshared=2 
%mem=2GB 
# b3lyp/6-31+g(d,p) scrf=(iefpcm,solvent=acetonitrile) 

tmpdir/M2_conf_0_9.gjf 

0 1
C                   0.00000000    0.00000000    0.00000000 
C                   1.39430000    0.00000000    0.00000000 
C                   2.02720000    0.00000000    1.24698000 
H                  -0.49031000    0.02098000    0.88356000 
H                  -0.54032000   -0.02528000   -0.94044000 
H                   1.96359000   -0.08114000   -0.97437000 
O                   1.33966000    0.02607000    2.26581000 
H                   3.11104000   -0.01872000    1.32210000 


