%nprocshared=2 
%mem=2GB 
# b3lyp/6-31+g(d,p) scrf=(iefpcm,solvent=acetonitrile) 

tmpdir/M2_conf_0_126.gjf 

0 1
C                   0.00000000    0.00000000    0.00000000 
H                   1.08460000    0.00000000    0.00000000 
H                  -0.51277000    0.00000000   -0.87259000 
O                  -0.63182000    0.01531000    1.05684000 


