%nprocshared=2 
%mem=2GB 
# b3lyp/6-31+g(d,p) scrf=(iefpcm,solvent=acetonitrile) 

tmpdir/M2_conf_0_90.gjf 

0 1
C                   0.00000000    0.00000000    0.00000000 
H                   1.09120000    0.00000000    0.00000000 
H                  -0.36948000    0.00000000   -1.01845000 
H                  -0.30470000    0.91306000    0.53120000 
H                  -0.34073000   -0.86388000    0.57244000 


