%nprocshared=2 
%mem=2GB 
# b3lyp/6-31+g(d,p) scrf=(iefpcm,solvent=acetonitrile) 

tmpdir/M2_conf_0_63.gjf 

0 1
C                   0.00000000    0.00000000    0.00000000 
C                   1.39950000    0.00000000    0.00000000 
H                   1.93595000    0.00000000    0.94241000 
H                  -0.53861000   -0.01856000    0.99389000 
O                  -0.62504000    0.00688000   -1.06490000 
O                   2.01030000    0.00505000   -1.07084000 


