%nprocshared=2 
%mem=2GB 
# b3lyp/6-31+g(d,p) scrf=(iefpcm,solvent=acetonitrile) 

tmpdir/M2_conf_0_22.gjf 

0 1
C                   0.00000000    0.00000000    0.00000000 
C                   1.41510000    0.00000000    0.00000000 
H                  -0.52402000    0.00000000   -0.86424000 
H                  -0.53556000   -0.00314000    0.94544000 
H                   1.89930000    0.00094000   -0.89513000 
H                   1.97690000   -0.02682000    0.93683000 


