%nprocshared=2 
%mem=2GB 
# b3lyp/6-31+g(d,p) scrf=(iefpcm,solvent=acetonitrile) 

tmpdir/M2_conf_0_120.gjf 

0 1
C                   0.00000000    0.00000000    0.00000000 
C                   1.39710000    0.00000000    0.00000000 
C                  -0.67166000    0.00000000   -1.22631000 
H                  -0.55677000    0.01283000    0.93058000 
C                   2.09914000   -0.00359000   -1.21010000 
H                   1.93367000    0.00675000    0.94336000 


