%nprocshared=2 
%mem=2GB 
# b3lyp/6-31+g(d,p) scrf=(iefpcm,solvent=acetonitrile) 

tmpdir/M2_conf_0_78.gjf 

0 1
C                   0.00000000    0.00000000    0.00000000 
C                   1.39580000    0.00000000    0.00000000 
H                   1.93344000    0.00000000    0.94335000 
O                  -0.60954000   -0.00918000   -1.07383000 
H                  -0.55278000    0.00049000    0.93247000 
O                   2.01737000    0.00205000   -1.06625000 


