%nprocshared=2 
%mem=2GB 
# b3lyp/6-31+g(d,p) scrf=(iefpcm,solvent=acetonitrile) 

tmpdir/M2_conf_0_40.gjf 

0 1
C                   0.00000000    0.00000000    0.00000000 
C                   1.50950000    0.00000000    0.00000000 
H                   1.90974000    0.00000000    1.01816000 
O                  -0.63640000   -0.60256000   -0.87411000 
H                  -0.51851000    0.51695000    0.70684000 
H                   1.89565000    0.89640000   -0.50077000 
H                   1.90846000   -0.87022000   -0.52827000 


