%nprocshared=2 
%mem=2GB 
# b3lyp/6-31+g(d,p) scrf=(iefpcm,solvent=acetonitrile) 

tmpdir/M2_conf_0_39.gjf 

0 1
C                   0.00000000    0.00000000    0.00000000 
C                   1.50950000    0.00000000    0.00000000 
H                   1.90977000    0.00000000    1.02137000 
O                  -0.63640000    1.05699000   -0.09954000 
H                  -0.51851000   -0.86920000    0.10657000 
H                   1.90743000   -0.88965000   -0.49700000 
H                   1.90846000    0.88560000   -0.50207000 


