%nprocshared=2 
%mem=2GB 
# b3lyp/6-31+g(d,p) scrf=(iefpcm,solvent=acetonitrile) 

tmpdir/M2_conf_0_3.gjf 

0 2
C                   0.00000000    0.00000000    0.00000000 
C                   1.47380000    0.00000000    0.00000000 
C                   2.10965000    0.00000000    1.35492000 
H                  -0.54419000    0.51215000    0.81046000 
O                  -0.62079000   -0.60870000   -0.88006000 
H                   1.94308000   -0.09565000   -0.96343000 
H                   2.69214000    0.91797000    1.51836000 
H                   1.38239000   -0.09712000    2.16222000 
H                   2.82178000   -0.82990000    1.43376000 


