%nprocshared=2 
%mem=2GB 
# b3lyp/6-31+g(d,p) scrf=(iefpcm,solvent=acetonitrile) 

tmpdir/M2_conf_0_123.gjf 

0 1
C                   0.00000000    0.00000000    0.00000000 
C                   1.39820000    0.00000000    0.00000000 
H                   1.94520000    0.00000000    0.93645000 
H                  -0.54483000   -0.02335000    0.98342000 
H                  -0.53513000    0.01005000   -0.85900000 
H                   1.88381000    0.01207000   -0.88654000 


