%nprocshared=2 
%mem=2GB 
# b3lyp/6-31+g(d,p) scrf=(iefpcm,solvent=acetonitrile) 

tmpdir/M2_conf_0_114.gjf 

0 1
O                   0.00000000    0.00000000    0.00000000 
S                   1.48320000    0.00000000    0.00000000 
C                   2.04479000    0.00000000    1.70910000 
H                   1.91886000    1.26203000   -0.49408000 
O                   2.18948000   -1.07746000   -0.72785000 
O                   3.15964000   -0.45590000    1.97144000 
H                   1.44128000    0.38323000    2.42552000 


