%nprocshared=2 
%mem=2GB 
# b3lyp/6-31+g(d,p) scrf=(iefpcm,solvent=acetonitrile) 

tmpdir/M2_conf_0_57.gjf 

0 1
N                   0.00000000    0.00000000    0.00000000 
C                   1.43840000    0.00000000    0.00000000 
C                   2.12840000    0.00000000    1.21758000 
H                  -0.52082000   -0.91938000    0.12398000 
H                  -0.49278000    0.80376000   -0.27472000 
O                   2.07677000   -0.01310000   -1.05690000 
O                   3.36110000   -0.01514000    1.22108000 
H                   1.56906000    0.01764000    2.14643000 


