%nprocshared=2 
%mem=2GB 
# b3lyp/6-31+g(d,p) scrf=(iefpcm,solvent=acetonitrile) 

tmpdir/M2_conf_0_31.gjf 

0 1
C                   0.00000000    0.00000000    0.00000000 
C                   1.40590000    0.00000000    0.00000000 
H                   1.93811000    0.00000000    0.94722000 
O                  -0.58892000   -0.00513000   -1.08871000 
H                  -0.55672000   -0.02117000    0.94000000 
O                   2.04129000   -0.00680000   -1.05245000 


