%nprocshared=2 
%mem=2GB 
# b3lyp/6-31+g(d,p) scrf=(iefpcm,solvent=acetonitrile) 

tmpdir/M2_conf_0_2.gjf 

0 2
C                   0.00000000    0.00000000    0.00000000 
C                   1.50840000    0.00000000    0.00000000 
H                  -0.46535000    0.00000000   -0.96006000 
H                  -0.52904000   -0.08815000    0.94133000 
H                   1.91885000    0.19572000   -0.99117000 
H                   1.91449000    0.70849000    0.73009000 
H                   1.98814000   -1.01321000    0.32960000 


