%nprocshared=2 
%mem=2GB 
# b3lyp/6-31+g(d,p) scrf=(iefpcm,solvent=acetonitrile) 

tmpdir/M2_conf_0_70.gjf 

0 1
C                   0.00000000    0.00000000    0.00000000 
C                   1.39910000    0.00000000    0.00000000 
C                  -0.70084000    0.00000000   -1.20999000 
H                  -0.54683000    0.00573000    0.93803000 
C                   2.09863000   -0.00423000   -1.21259000 
H                   1.94271000    0.00541000    0.94002000 


