%nprocshared=2 
%mem=2GB 
# b3lyp/6-31+g(d,p) scrf=(iefpcm,solvent=acetonitrile) 

tmpdir/M2_conf_0_108.gjf 

0 1
S                   0.00000000    0.00000000    0.00000000 
C                   1.80010000    0.00000000    0.00000000 
H                  -0.33282000    0.00000000   -1.38415000 
O                  -0.47001000   -1.26204000    0.61308000 
O                  -0.46448000    1.28430000    0.57854000 
O                   2.39735000   -1.07826000    0.01430000 
H                   2.29232000    0.88407000   -0.02207000 


