%nprocshared=2 
%mem=2GB 
# b3lyp/6-31+g(d,p) scrf=(iefpcm,solvent=acetonitrile) 

tmpdir/M2_conf_0_20.gjf 

0 1
C                   0.00000000    0.00000000    0.00000000 
C                   1.39840000    0.00000000    0.00000000 
H                   1.93923000    0.00000000    0.94244000 
O                  -0.63571000    0.02112000   -1.05195000 
H                  -0.53968000    0.06123000    0.99250000 
O                   1.99574000   -0.00450000   -1.07452000 


