%nprocshared=2 
%mem=2GB 
# b3lyp/6-31+g(d,p) scrf=(iefpcm,solvent=acetonitrile) 

tmpdir/M2_conf_0_79.gjf 

0 1
C                   0.00000000    0.00000000    0.00000000 
C                   1.39990000    0.00000000    0.00000000 
H                   1.94608000    0.00000000    0.93843000 
H                  -0.50554000    0.00291000   -0.87633000 
H                  -0.54262000   -0.00099000    0.94061000 
H                   1.90876000   -0.00168000   -0.87291000 


