%nprocshared=2 
%mem=2GB 
# b3lyp/6-31+g(d,p) scrf=(iefpcm,solvent=acetonitrile) 

tmpdir/M2_conf_0_43.gjf 

0 1
H                   0.00000000    0.00000000    0.00000000 
C                   1.09700000    0.00000000    0.00000000 
H                   1.41850000    0.00000000    1.04506000 
H                   1.48164000    0.86877000   -0.53971000 
H                   1.42215000   -0.93449000   -0.46674000 


