%nprocshared=2 
%mem=2GB 
# b3lyp/6-31+g(d,p) scrf=(iefpcm,solvent=acetonitrile) 

tmpdir/M2_conf_0_94.gjf 

0 1
H                   0.00000000    0.00000000    0.00000000 
C                   1.09940000    0.00000000    0.00000000 
H                   1.43016000    0.00000000    1.03955000 
H                   1.48907000   -0.83321000   -0.57243000 
H                   1.40326000    0.94635000   -0.46279000 


