%nprocshared=2 
%mem=2GB 
# b3lyp/6-31+g(d,p) scrf=(iefpcm,solvent=acetonitrile) 

tmpdir/M2_conf_0_17.gjf 

0 1
C                   0.00000000    0.00000000    0.00000000 
C                   1.38470000    0.00000000    0.00000000 
H                  -0.49185000    0.00000000   -0.88478000 
H                  -0.54429000   -0.00394000    0.94045000 
H                   1.91068000    0.01140000   -0.87116000 
H                   1.91592000   -0.00629000    0.94776000 


