%nprocshared=2 
%mem=2GB 
# b3lyp/6-31+g(d,p) scrf=(iefpcm,solvent=acetonitrile) 

tmpdir/M2_conf_0_24.gjf 

0 1
C                   0.00000000    0.00000000    0.00000000 
C                   1.39620000    0.00000000    0.00000000 
C                   2.13542000    0.00000000    1.19364000 
O                  -0.59635000   -0.01295000    1.07488000 
H                  -0.56055000    0.01410000   -0.92876000 
H                   1.92697000    0.00314000   -0.94814000 
H                   1.62934000   -0.00094000    2.07658000 
H                   3.22768000    0.02682000    1.17801000 


