%nprocshared=2 
%mem=2GB 
# b3lyp/6-31+g(d,p) scrf=(iefpcm,solvent=acetonitrile) 

tmpdir/M2_conf_0_8.gjf 

0 1
C                   0.00000000    0.00000000    0.00000000 
S                   1.86180000    0.00000000    0.00000000 
O                  -0.61855000    0.00000000   -1.06235000 
H                  -0.48287000   -0.07182000    0.88681000 
O                   2.27575000   -0.19672000   -1.43981000 
H                   2.10622000    1.39438000    0.33656000 


