%nprocshared=2 
%mem=2GB 
# b3lyp/6-31+g(d,p) scrf=(iefpcm,solvent=acetonitrile) 

tmpdir/M2_conf_0_56.gjf 

0 1
C                   0.00000000    0.00000000    0.00000000 
C                   1.39920000    0.00000000    0.00000000 
H                  -0.58450000    0.00000000   -0.96779000 
H                  -0.51282000   -0.01113000    0.87365000 
H                   1.89797000   -0.00506000    0.87870000 
H                   1.93726000    0.01281000   -0.94095000 


