%nprocshared=2 
%mem=2GB 
# b3lyp/6-31+g(d,p) scrf=(iefpcm,solvent=acetonitrile) 

tmpdir/M2_conf_0_115.gjf 

0 1
C                   0.00000000    0.00000000    0.00000000 
C                   1.39680000    0.00000000    0.00000000 
H                  -0.54483000    0.00000000   -0.98370000 
H                  -0.53513000    0.01035000    0.85900000 
H                   1.88241000    0.00882000    0.88658000 
H                   1.94559000   -0.02220000   -0.93513000 


