%nprocshared=2 
%mem=2GB 
# b3lyp/6-31+g(d,p) scrf=(iefpcm,solvent=acetonitrile) 

tmpdir/M2_conf_0_111.gjf 

0 1
C                   0.00000000    0.00000000    0.00000000 
S                   1.86930000    0.00000000    0.00000000 
C                   2.42164000    0.00000000    1.71211000 
H                  -0.44172000    0.15195000   -0.96920000 
H                  -0.28077000    0.78197000    0.70632000 
H                  -0.24157000   -0.98831000    0.40594000 
O                   2.35544000    1.26205000   -0.60035000 
O                   2.32320000   -1.28429000   -0.58691000 
O                   2.61862000    1.07826000    2.27612000 
H                   2.55176000   -0.88407000    2.18733000 


