%nprocshared=2 
%mem=2GB 
# b3lyp/6-31+g(d,p) scrf=(iefpcm,solvent=acetonitrile) 

tmpdir/M2_conf_0_10.gjf 

0 1
C                   0.00000000    0.00000000    0.00000000 
C                   1.39430000    0.00000000    0.00000000 
S                   2.18491000    0.00000000    1.62820000 
H                  -0.49031000    0.05242000   -0.88225000 
H                  -0.54032000   -0.05284000    0.93929000 
H                   1.91779000    0.07190000   -0.86345000 
O                   1.07053000    0.19672000    2.62949000 
H                   2.59443000   -1.39438000    1.70106000 


