%nprocshared=2 
%mem=2GB 
# b3lyp/6-31+g(d,p) scrf=(iefpcm,solvent=acetonitrile) 

tmpdir/M2_conf_0_121.gjf 

0 1
C                   0.00000000    0.00000000    0.00000000 
H                   1.08360000    0.00000000    0.00000000 
O                  -0.62379000    0.00000000   -1.06322000 
H                  -0.51899000   -0.01211000    0.86742000 


