%nprocshared=2 
%mem=2GB 
# b3lyp/6-31+g(d,p) scrf=(iefpcm,solvent=acetonitrile) 

tmpdir/M2_conf_0_119.gjf 

0 1
C                   0.00000000    0.00000000    0.00000000 
C                   1.39820000    0.00000000    0.00000000 
C                   2.13660000    0.00000000    1.18721000 
H                  -0.48561000    0.00186000    0.88662000 
H                  -0.54879000    0.01094000   -0.93533000 
H                   1.94303000   -0.01185000   -0.98363000 
O                   1.53154000    0.00132000    2.25970000 
H                   3.22059000    0.01207000    1.16000000 


