%nprocshared=2 
%mem=2GB 
# b3lyp/6-31+g(d,p) scrf=(iefpcm,solvent=acetonitrile) 

tmpdir/M2_conf_0_124.gjf 

0 1
C                   0.00000000    0.00000000    0.00000000 
C                   1.39640000    0.00000000    0.00000000 
H                   1.95496000    0.00000000    0.92960000 
O                  -0.61894000   -0.01154000   -1.06680000 
H                  -0.53657000    0.00626000    0.94336000 
O                   1.98856000   -0.01491000   -1.08105000 


