%nprocshared=2 
%mem=2GB 
# b3lyp/6-31+g(d,p) scrf=(iefpcm,solvent=acetonitrile) 

tmpdir/M2_conf_0_117.gjf 

0 1
S                   0.00000000    0.00000000    0.00000000 
C                   1.79900000    0.00000000    0.00000000 
C                   2.48262000    0.00000000    1.21969000 
H                  -0.33282000   -1.38403000   -0.01836000 
O                  -0.47001000    0.59651000    1.26995000 
O                  -0.46448000    0.59552000   -1.27652000 
H                   2.29122000   -0.01034000   -0.88428000 
H                   3.49343000   -0.00882000    1.20983000 
H                   1.93520000    0.02220000    2.15562000 


