%nprocshared=2 
%mem=2GB 
# b3lyp/6-31+g(d,p) scrf=(iefpcm,solvent=acetonitrile) 

tmpdir/M2_conf_0_75.gjf 

0 1
C                   0.00000000    0.00000000    0.00000000 
C                   1.39850000    0.00000000    0.00000000 
H                  -0.50886000    0.00000000   -0.87291000 
H                  -0.54520000    0.00180000    0.93900000 
H                   1.90404000   -0.00459000   -0.87632000 
H                   1.94112000    0.00279000    0.94060000 


