%nprocshared=2 
%mem=2GB 
# b3lyp/6-31+g(d,p) scrf=(iefpcm,solvent=acetonitrile) 

tmpdir/M2_conf_0_48.gjf 

0 1
C                   0.00000000    0.00000000    0.00000000 
S                   1.81000000    0.00000000    0.00000000 
N                   1.91868000    0.00000000    1.77688000 
O                  -0.61855000    1.03269000   -0.24926000 
H                  -0.48287000   -0.87890000    0.13826000 
O                   2.22395000    1.35346000   -0.52905000 
H                   1.39668000    0.68208000    2.30274000 
H                   2.34705000   -0.75452000    2.23679000 


