%nprocshared=2 
%mem=2GB 
# b3lyp/6-31+g(d,p) scrf=(iefpcm,solvent=acetonitrile) 

tmpdir/M2_conf_0_137.gjf 

0 1
C                   0.00000000    0.00000000    0.00000000 
C                   1.39670000    0.00000000    0.00000000 
C                   2.09800000    0.00000000    1.21030000 
H                  -0.48588000    0.00124000    0.88784000 
H                  -0.55640000    0.01202000   -0.93070000 
H                   1.93327000    0.00461000   -0.94337000 
O                   1.49084000    0.00241000    2.28390000 
H                   3.18359000    0.00148000    1.20442000 


