%nprocshared=2 
%mem=2GB 
# b3lyp/6-31+g(d,p) scrf=(iefpcm,solvent=acetonitrile) 

tmpdir/M2_conf_0_30.gjf 

0 1
C                   0.00000000    0.00000000    0.00000000 
C                   1.39440000    0.00000000    0.00000000 
H                   1.92148000    0.00000000    0.95009000 
H                  -0.49185000   -0.00587000   -0.88476000 
H                  -0.54429000    0.00230000    0.94045000 
H                   1.92038000    0.00563000   -0.87122000 


