%nprocshared=2 
%mem=2GB 
# b3lyp/6-31+g(d,p) scrf=(iefpcm,solvent=acetonitrile) 

tmpdir/M2_conf_0_116.gjf 

0 1
C                   0.00000000    0.00000000    0.00000000 
C                   1.39920000    0.00000000    0.00000000 
H                  -0.54688000    0.00000000   -0.98256000 
C                  -0.73928000   -0.01429000    1.18669000 
C                   2.06971000   -0.01326000    1.22516000 
H                   1.94860000    0.02333000   -0.93464000 


