%nprocshared=2 
%mem=2GB 
# b3lyp/6-31+g(d,p) scrf=(iefpcm,solvent=acetonitrile) 

tmpdir/M2_conf_0_107.gjf 

0 1
S                   0.00000000    0.00000000    0.00000000 
O                   1.48020000    0.00000000    0.00000000 
H                  -0.43566000    0.00000000   -1.35530000 
O                  -0.70628000    1.07068000    0.73779000 
H                  -0.42903000   -1.21155000    0.47431000 


