%nprocshared=2 
%mem=2GB 
# b3lyp/6-31+g(d,p) scrf=(iefpcm,solvent=acetonitrile) 

tmpdir/M2_ref_19.gjf 

0 1
C                   3.16165000   -1.04264100    0.85348300 
C                   2.73511900   -2.20513100    0.20377800 
C                   3.68324500   -3.03143100   -0.39849200 
O                   4.35462632   -0.75435433    0.92253645 
H                   2.39099503   -0.40895372    1.38698451 
H                   1.68100100   -2.46534500    0.16134200 
H                   4.67528154   -2.80731155   -0.36203565 
H                   3.35480000   -3.93225100   -0.90956600 


