%nprocshared=2 
%mem=2GB 
# b3lyp/6-31+g(d,p) scrf=(iefpcm,solvent=acetonitrile) 

tmpdir/M2_ref_73.gjf 

0 1
C                   2.64940900    2.80928500   -0.21644500 
C                   3.54115600    3.47905400   -1.05996000 
H                   3.91170300    4.46046300   -0.77997100 
H                   2.30401621    1.89321595   -0.47684127 
H                   2.31760700    3.25886600    0.71296700 
H                   3.83468671    3.05240862   -1.92908214 


