%nprocshared=2 
%mem=2GB 
# b3lyp/6-31+g(d,p) scrf=(iefpcm,solvent=acetonitrile) 

tmpdir/M2_ref_57.gjf 

0 1
N                   1.26990200    0.87148300    0.31974100 
C                   2.17227200    1.54379700   -0.57616500 
C                   2.64940900    2.80928500   -0.21644500 
H                   1.66363747    0.33342543    1.14877347 
H                   0.32285297    0.76966432    0.08069087 
O                   2.53247826    1.01731708   -1.63347384 
O                   3.43558742    3.39976407   -0.96010132 
H                   2.31760700    3.25886600    0.71296700 


