%nprocshared=2 
%mem=2GB 
# b3lyp/6-31+g(d,p) scrf=(iefpcm,solvent=acetonitrile) 

tmpdir/M2_ref_14.gjf 

0 1
C                   3.16165000   -1.04264100    0.85348300 
C                   4.51482000   -0.71564300    0.93180900 
C                   5.45064400   -1.55467200    0.32379300 
H                   2.85289018   -1.88415124    0.38317065 
H                   2.39099503   -0.40895372    1.38698451 
H                   4.82477800    0.17845000    1.46244500 
O                   5.10067154   -2.58365276   -0.26858507 
H                   6.50545100   -1.29900600    0.37565500 


