%nprocshared=2 
%mem=2GB 
# b3lyp/6-31+g(d,p) scrf=(iefpcm,solvent=acetonitrile) 

tmpdir/M2_ref_29.gjf 

0 1
C                   2.73511900   -2.20513100    0.20377800 
C                   3.68324500   -3.03143100   -0.39849200 
C                   5.05367700   -2.72182500   -0.34813000 
H                   3.04387882   -1.36362076    0.67409035 
H                   1.68100100   -2.46534500    0.16134200 
H                   3.35480000   -3.93225100   -0.90956600 
O                   5.40364946   -1.69284424    0.24424807 
H                   5.79204506   -3.38892142   -0.79952070 


