%nprocshared=2 
%mem=2GB 
# b3lyp/6-31+g(d,p) scrf=(iefpcm,solvent=acetonitrile) 

tmpdir/M2_ref_47.gjf 

0 1
C                   3.16165000   -1.04264100    0.85348300 
S                   1.92875000   -0.02886300    1.70698300 
O                   2.71058100    0.95044200    2.55118400 
O                   4.35462632   -0.75435433    0.92253645 
H                   2.85289018   -1.88415124    0.38317065 
H                   1.39023400    0.70704381    0.57310688 


