%nprocshared=2 
%mem=2GB 
# b3lyp/6-31+g(d,p) scrf=(iefpcm,solvent=acetonitrile) 

tmpdir/M2_ref_120.gjf 

0 1
C                  -5.18318200   -0.21004200   -1.65332900 
C                  -6.11039500   -1.02469600   -2.30653500 
C                  -5.04005100   -0.33250400   -0.26783000 
H                  -4.59274600    0.51387800   -2.20412700 
C                  -6.87285700   -1.94425900   -1.57826200 
H                  -6.23844700   -0.93745900   -3.38068100 


