%nprocshared=2 
%mem=2GB 
# b3lyp/6-31+g(d,p) scrf=(iefpcm,solvent=acetonitrile) 

tmpdir/M2_ref_126.gjf 

0 1
C                  -5.79450200   -1.24517600    0.47550200 
H                  -5.67248400   -1.31171300    1.55098500 
H                  -5.24836548   -0.58450552   -0.06258563 
O                  -6.60782538   -1.95795460   -0.11335754 


