%nprocshared=2 
%mem=2GB 
# b3lyp/6-31+g(d,p) scrf=(iefpcm,solvent=acetonitrile) 

tmpdir/M2_ref_63.gjf 

0 1
C                   2.17227200    1.54379700   -0.57616500 
C                   2.64940900    2.80928500   -0.21644500 
H                   2.31760700    3.25886600    0.71296700 
H                   1.46299925    1.01535080    0.12802697 
O                   2.53247826    1.01731708   -1.63347384 
O                   3.43558742    3.39976407   -0.96010132 


