%nprocshared=2 
%mem=2GB 
# b3lyp/6-31+g(d,p) scrf=(iefpcm,solvent=acetonitrile) 

tmpdir/M2_ref_24.gjf 

0 1
C                   4.51482000   -0.71564300    0.93180900 
C                   5.45064400   -1.55467200    0.32379300 
C                   5.05367700   -2.72182500   -0.34813000 
O                   3.32184368   -1.00392967    0.86275555 
H                   4.82477800    0.17845000    1.46244500 
H                   6.50545100   -1.29900600    0.37565500 
H                   4.06164046   -2.94594445   -0.38458635 
H                   5.79204506   -3.38892142   -0.79952070 


