%nprocshared=2 
%mem=2GB 
# b3lyp/6-31+g(d,p) scrf=(iefpcm,solvent=acetonitrile) 

tmpdir/M2_ref_61.gjf 

0 1
C                   2.64940900    2.80928500   -0.21644500 
H                   2.31760700    3.25886600    0.71296700 
H                   2.30401621    1.89321595   -0.47684127 
O                   3.43558742    3.39976407   -0.96010132 


