%nprocshared=2 
%mem=2GB 
# b3lyp/6-31+g(d,p) scrf=(iefpcm,solvent=acetonitrile) 

tmpdir/M2_ref_68.gjf 

0 1
C                   2.17227200    1.54379700   -0.57616500 
C                   2.58084700    0.94662100   -1.77545000 
H                   2.20391900   -0.03358200   -2.04410100 
H                   1.46299925    1.01535080    0.12802697 
H                   2.51766479    2.45986605   -0.31576873 
H                   3.21942159    1.43796731   -2.38510389 


