%nprocshared=2 
%mem=2GB 
# b3lyp/6-31+g(d,p) scrf=(iefpcm,solvent=acetonitrile) 

tmpdir/M2_ref_33.gjf 

0 1
C                   5.45064400   -1.55467200    0.32379300 
C                   5.05367700   -2.72182500   -0.34813000 
C                   3.68324500   -3.03143100   -0.39849200 
H                   4.77321411   -0.94731065    0.76392727 
H                   6.50545100   -1.29900600    0.37565500 
H                   5.79204506   -3.38892142   -0.79952070 
O                   2.84736195   -2.30295170    0.13247887 
H                   3.35480000   -3.93225100   -0.90956600 


