%nprocshared=2 
%mem=2GB 
# b3lyp/6-31+g(d,p) scrf=(iefpcm,solvent=acetonitrile) 

tmpdir/M2_ref_136.gjf 

0 1
C                  -6.71703900   -2.05366700   -0.19243000 
H                  -7.31484100   -2.76336900    0.37042000 
O                  -5.90371562   -1.34088840    0.39642954 
H                  -6.82983347   -1.97446808   -1.19561438 


