%nprocshared=2 
%mem=2GB 
# b3lyp/6-31+g(d,p) scrf=(iefpcm,solvent=acetonitrile) 

tmpdir/M2_ref_121.gjf 

0 1
C                  -5.18318200   -0.21004200   -1.65332900 
H                  -4.59274600    0.51387800   -2.20412700 
O                  -5.05699542   -0.31800646   -0.43185091 
H                  -5.85437851   -0.79975863   -2.12617568 


