%nprocshared=2 
%mem=2GB 
# b3lyp/6-31+g(d,p) scrf=(iefpcm,solvent=acetonitrile) 

tmpdir/M2_ref_79.gjf 

0 1
C                   3.94664900    2.88967200   -2.26059400 
C                   3.46299500    1.62538300   -2.61764600 
H                   3.77392200    1.16650300   -3.55133600 
H                   3.65311829    3.31631738   -1.39147186 
H                   4.63497300    3.41273800   -2.91775100 
H                   2.82442041    1.13403669   -2.00799211 


