%nprocshared=2 
%mem=2GB 
# b3lyp/6-31+g(d,p) scrf=(iefpcm,solvent=acetonitrile) 

tmpdir/M2_ref_32.gjf 

0 1
C                   5.05367700   -2.72182500   -0.34813000 
C                   6.07368300   -3.64337400   -0.97169600 
O                   5.40364946   -1.69284424    0.24424807 
H                   4.06164046   -2.94594445   -0.38458635 
H                   6.32490000   -4.46189600   -0.28583600 
H                   5.69151000   -4.09567100   -1.89162700 
H                   7.00073900   -3.11280200   -1.20514200 


