%nprocshared=2 
%mem=2GB 
# b3lyp/6-31+g(d,p) scrf=(iefpcm,solvent=acetonitrile) 

tmpdir/M2_ref_87.gjf 

0 1
N                   1.26990200    0.87148300    0.31974100 
C                  -0.08266000    0.72606700   -0.02166700 
O                  -0.45727500    0.92555100   -1.18366300 
H                   1.66363747    0.33342543    1.14877347 
H                   1.90173155    1.34222987   -0.30756253 
H                  -0.79318162    0.47942529    0.73500524 


