%nprocshared=2 
%mem=2GB 
# b3lyp/6-31+g(d,p) scrf=(iefpcm,solvent=acetonitrile) 

tmpdir/M2_ref_35.gjf 

0 1
C                   3.68324500   -3.03143100   -0.39849200 
C                   5.05367700   -2.72182500   -0.34813000 
C                   6.07368300   -3.64337400   -0.97169600 
O                   2.84736195   -2.30295170    0.13247887 
H                   3.35480000   -3.93225100   -0.90956600 
O                   5.40364946   -1.69284424    0.24424807 
H                   6.32490000   -4.46189600   -0.28583600 
H                   5.69151000   -4.09567100   -1.89162700 
H                   7.00073900   -3.11280200   -1.20514200 


