%nprocshared=2 
%mem=2GB 
# b3lyp/6-31+g(d,p) scrf=(iefpcm,solvent=acetonitrile) 

tmpdir/M2_ref_65.gjf 

0 1
C                   2.58084700    0.94662100   -1.77545000 
C                   3.46299500    1.62538300   -2.61764600 
C                   2.17227200    1.54379700   -0.57616500 
H                   2.20391900   -0.03358200   -2.04410100 
C                   3.94664900    2.88967200   -2.26059400 
H                   3.77392200    1.16650300   -3.55133600 


