%nprocshared=2 
%mem=2GB 
# b3lyp/6-31+g(d,p) scrf=(iefpcm,solvent=acetonitrile) 

tmpdir/M2_ref_10.gjf 

0 1
C                   4.51482000   -0.71564300    0.93180900 
C                   3.16165000   -1.04264100    0.85348300 
S                   1.92875000   -0.02886300    1.70698300 
H                   5.19224989   -1.32300435    0.49167473 
H                   4.82477800    0.17845000    1.46244500 
H                   2.85289018   -1.88415124    0.38317065 
O                   2.71058100    0.95044200    2.55118400 
H                   1.39023400    0.70704381    0.57310688 


