%nprocshared=2 
%mem=2GB 
# b3lyp/6-31+g(d,p) scrf=(iefpcm,solvent=acetonitrile) 

tmpdir/M2_ref_42.gjf 

0 1
H                   6.32490000   -4.46189600   -0.28583600 
C                   6.07368300   -3.64337400   -0.97169600 
H                   5.69151000   -4.09567100   -1.89162700 
H                   5.33531494   -2.97627758   -0.52030530 
H                   7.00073900   -3.11280200   -1.20514200 


