%nprocshared=2 
%mem=2GB 
# b3lyp/6-31+g(d,p) scrf=(iefpcm,solvent=acetonitrile) 

tmpdir/M2_ref_141.gjf 

0 1
C                  -6.11039500   -1.02469600   -2.30653500 
C                  -6.87285700   -1.94425900   -1.57826200 
C                  -6.71703900   -2.05366700   -0.19243000 
H                  -5.43919849   -0.43497937   -1.83368832 
H                  -6.23844700   -0.93745900   -3.38068100 
H                  -7.59263300   -2.57453600   -2.09132600 
O                  -5.90371562   -1.34088840    0.39642954 
H                  -7.31484100   -2.76336900    0.37042000 


