%nprocshared=2 
%mem=2GB 
# b3lyp/6-31+g(d,p) scrf=(iefpcm,solvent=acetonitrile) 

tmpdir/M2_ref_13.gjf 

0 1
C                   4.51482000   -0.71564300    0.93180900 
H                   4.82477800    0.17845000    1.46244500 
O                   3.32184368   -1.00392967    0.86275555 
H                   5.19224989   -1.32300435    0.49167473 


