%nprocshared=2 
%mem=2GB 
# b3lyp/6-31+g(d,p) scrf=(iefpcm,solvent=acetonitrile) 

tmpdir/M2_ref_115.gjf 

0 1
C                  -5.04005100   -0.33250400   -0.26783000 
C                  -5.18318200   -0.21004200   -1.65332900 
H                  -4.28780824    0.31437424    0.26146476 
H                  -5.58618752   -0.99317448    0.27025763 
H                  -5.85437851   -0.79975863   -2.12617568 
H                  -4.59274600    0.51387800   -2.20412700 


