%nprocshared=2 
%mem=2GB 
# b3lyp/6-31+g(d,p) scrf=(iefpcm,solvent=acetonitrile) 

tmpdir/M2_ref_58.gjf 

0 1
N                   1.26990200    0.87148300    0.31974100 
C                   2.17227200    1.54379700   -0.57616500 
C                   2.58084700    0.94662100   -1.77545000 
H                   1.66363747    0.33342543    1.14877347 
H                   0.32285297    0.76966432    0.08069087 
H                   2.51766479    2.45986605   -0.31576873 
H                   3.21942159    1.43796731   -2.38510389 
H                   2.20391900   -0.03358200   -2.04410100 


