%nprocshared=2 
%mem=2GB 
# b3lyp/6-31+g(d,p) scrf=(iefpcm,solvent=acetonitrile) 

tmpdir/M2_ref_22.gjf 

0 1
C                   5.45064400   -1.55467200    0.32379300 
C                   5.05367700   -2.72182500   -0.34813000 
H                   4.77321411   -0.94731065    0.76392727 
H                   6.50545100   -1.29900600    0.37565500 
H                   4.06164046   -2.94594445   -0.38458635 
H                   5.79204506   -3.38892142   -0.79952070 


