%nprocshared=2 
%mem=2GB 
# b3lyp/6-31+g(d,p) scrf=(iefpcm,solvent=acetonitrile) 

tmpdir/M2_ref_129.gjf 

0 1
C                  -6.71703900   -2.05366700   -0.19243000 
C                  -5.79450200   -1.24517600    0.47550200 
H                  -5.67248400   -1.31171300    1.55098500 
H                  -6.82983347   -1.97446808   -1.19561438 
H                  -7.31484100   -2.76336900    0.37042000 
H                  -5.24836548   -0.58450552   -0.06258563 


