%nprocshared=2 
%mem=2GB 
# b3lyp/6-31+g(d,p) scrf=(iefpcm,solvent=acetonitrile) 

tmpdir/M2_ref_71.gjf 

0 1
C                   3.54115600    3.47905400   -1.05996000 
H                   3.91170300    4.46046300   -0.77997100 
O                   2.75497758    2.88857493   -0.31630368 
H                   3.83468671    3.05240862   -1.92908214 


