%nprocshared=2 
%mem=2GB 
# b3lyp/6-31+g(d,p) scrf=(iefpcm,solvent=acetonitrile) 

tmpdir/M2_ref_55.gjf 

0 1
C                   2.17227200    1.54379700   -0.57616500 
C                   2.64940900    2.80928500   -0.21644500 
H                   1.46299925    1.01535080    0.12802697 
C                   2.58084700    0.94662100   -1.77545000 
C                   3.54115600    3.47905400   -1.05996000 
H                   2.31760700    3.25886600    0.71296700 


