%nprocshared=2 
%mem=2GB 
# b3lyp/6-31+g(d,p) scrf=(iefpcm,solvent=acetonitrile) 

tmpdir/M2_ref_80.gjf 

0 1
C                   3.94664900    2.88967200   -2.26059400 
H                   4.63497300    3.41273800   -2.91775100 
H                   3.65311829    3.31631738   -1.39147186 
O                   3.52025190    1.77505459   -2.57537676 


