%nprocshared=2 
%mem=2GB 
# b3lyp/6-31+g(d,p) scrf=(iefpcm,solvent=acetonitrile) 

tmpdir/M2_ref_77.gjf 

0 1
C                   2.58084700    0.94662100   -1.77545000 
C                   3.46299500    1.62538300   -2.61764600 
C                   3.94664900    2.88967200   -2.26059400 
O                   2.22064074    1.47310092   -0.71814116 
H                   2.20391900   -0.03358200   -2.04410100 
H                   3.77392200    1.16650300   -3.55133600 
H                   3.65311829    3.31631738   -1.39147186 
H                   4.63497300    3.41273800   -2.91775100 


