%nprocshared=2 
%mem=2GB 
# b3lyp/6-31+g(d,p) scrf=(iefpcm,solvent=acetonitrile) 

tmpdir/M2_ref_7.gjf 

0 1
C                   3.16165000   -1.04264100    0.85348300 
C                   2.73511900   -2.20513100    0.20377800 
C                   4.51482000   -0.71564300    0.93180900 
H                   2.39099503   -0.40895372    1.38698451 
C                   3.68324500   -3.03143100   -0.39849200 
H                   1.68100100   -2.46534500    0.16134200 


