%nprocshared=2 
%mem=2GB 
# b3lyp/6-31+g(d,p) scrf=(iefpcm,solvent=acetonitrile) 

tmpdir/M2_ref_137.gjf 

0 1
C                  -5.79450200   -1.24517600    0.47550200 
C                  -6.71703900   -2.05366700   -0.19243000 
C                  -6.87285700   -1.94425900   -1.57826200 
H                  -5.24836548   -0.58450552   -0.06258563 
H                  -5.67248400   -1.31171300    1.55098500 
H                  -7.31484100   -2.76336900    0.37042000 
O                  -6.20065830   -1.13355755   -2.22031913 
H                  -7.59263300   -2.57453600   -2.09132600 


