%nprocshared=2 
%mem=2GB 
# b3lyp/6-31+g(d,p) scrf=(iefpcm,solvent=acetonitrile) 

tmpdir/M2_ref_25.gjf 

0 1
C                   4.51482000   -0.71564300    0.93180900 
C                   5.45064400   -1.55467200    0.32379300 
H                   6.50545100   -1.29900600    0.37565500 
O                   3.32184368   -1.00392967    0.86275555 
H                   4.82477800    0.17845000    1.46244500 
O                   5.10067154   -2.58365276   -0.26858507 


