%nprocshared=2 
%mem=2GB 
# b3lyp/6-31+g(d,p) scrf=(iefpcm,solvent=acetonitrile) 

tmpdir/M2_ref_131.gjf 

0 1
C                  -6.11039500   -1.02469600   -2.30653500 
H                  -6.23844700   -0.93745900   -3.38068100 
H                  -5.43919849   -0.43497937   -1.83368832 
O                  -6.78259370   -1.83539745   -1.66447787 


