%nprocshared=2 
%mem=2GB 
# b3lyp/6-31+g(d,p) scrf=(iefpcm,solvent=acetonitrile) 

tmpdir/M2_ref_135.gjf 

0 1
C                  -6.71703900   -2.05366700   -0.19243000 
C                  -6.87285700   -1.94425900   -1.57826200 
C                  -5.79450200   -1.24517600    0.47550200 
H                  -7.31484100   -2.76336900    0.37042000 
C                  -6.11039500   -1.02469600   -2.30653500 
H                  -7.59263300   -2.57453600   -2.09132600 


