%nprocshared=2 
%mem=2GB 
# b3lyp/6-31+g(d,p) scrf=(iefpcm,solvent=acetonitrile) 

tmpdir/M2_ref_66.gjf 

0 1
C                   2.58084700    0.94662100   -1.77545000 
H                   2.20391900   -0.03358200   -2.04410100 
O                   2.22064074    1.47310092   -0.71814116 
H                   3.21942159    1.43796731   -2.38510389 


