%nprocshared=4 
%mem=4GB 
# b3lyp/6-31+g(d,p) scrf=(iefpcm,solvent=acetonitrile) 

tmpdir/M3_conf_0_22.gjf 

0 1
N                   0.00000000    0.00000000    0.00000000 
C                   1.43470000    0.00000000    0.00000000 
C                   2.10141000    0.00000000    1.23049000 
C                   2.15884000   -0.01486000   -1.19890000 
C                   3.49927000   -0.01717000    1.26105000 
H                   1.52450000    0.01764000    2.14852000 
C                   3.55411000   -0.02138000   -1.16107000 
H                   1.63156000   -0.01378000   -2.14602000 
C                   4.22597000   -0.02580000    0.06727000 
H                   4.01603000   -0.01799000    2.21600000 
H                   4.11613000   -0.02483000   -2.09009000 
H                   5.31157000   -0.03372000    0.09175000 
H                  -0.52082000   -0.91938000    0.12398000 
H                  -0.49278000    0.80376000   -0.27472000 


