%nprocshared=4 
%mem=4GB 
# b3lyp/6-31+g(d,p) scrf=(iefpcm,solvent=acetonitrile) 

tmpdir/M3_conf_0_17.gjf 

0 1
S                   0.00000000    0.00000000    0.00000000 
O                   1.50430000    0.00000000    0.00000000 
H                  -0.37765000    0.00000000   -1.32576000 
H                  -0.43513000    1.33605000    0.37807000 


