%nprocshared=4 
%mem=4GB 
# b3lyp/6-31+g(d,p) scrf=(iefpcm,solvent=acetonitrile) 

tmpdir/M3_conf_0_48.gjf 

0 1
H                   0.00000000    0.00000000    0.00000000 
C                   1.09540000    0.00000000    0.00000000 
S                   1.50954000    0.00000000    1.82285000 
H                   1.49426000   -0.83879000   -0.54305000 
H                   1.47730000    0.95037000   -0.37436000 
O                   2.97807000   -0.07582000    1.98773000 
O                   0.66909000   -1.03085000    2.47926000 
H                   1.08698000    1.23215000    2.24730000 


