%nprocshared=4 
%mem=4GB 
# b3lyp/6-31+g(d,p) scrf=(iefpcm,solvent=acetonitrile) 

tmpdir/M3_conf_0_16.gjf 

0 1
H                   0.00000000    0.00000000    0.00000000 
C                   1.09400000    0.00000000    0.00000000 
H                   1.42115000    0.00000000    1.04331000 
H                   1.49146000   -0.85422000   -0.55347000 
H                   1.42004000    0.94214000   -0.45768000 


