%nprocshared=4 
%mem=4GB 
# b3lyp/6-31+g(d,p) scrf=(iefpcm,solvent=acetonitrile) 

tmpdir/M3_conf_0_20.gjf 

0 1
C                   0.00000000    0.00000000    0.00000000 
S                   1.81000000    0.00000000    0.00000000 
N                   1.91868000    0.00000000    1.77688000 
C                  -0.70157000    1.17130000   -0.28272000 
C                  -0.66704000   -1.21412000    0.19100000 
C                  -2.09561000    1.12717000   -0.34655000 
H                  -0.16172000    2.09703000   -0.45180000 
C                  -2.05962000   -1.23984000    0.12445000 
H                  -0.11482000   -2.12790000    0.39287000 
C                  -2.79587000   -0.07310000   -0.14605000 
H                  -2.64637000    2.03951000   -0.55870000 
H                  -2.58153000   -2.18025000    0.27852000 
O                   2.22395000    1.35346000   -0.52905000 
H                   1.39668000    0.68208000    2.30274000 
H                   2.34705000   -0.75452000    2.23679000 
H                  -3.88529000   -0.10758000   -0.22332000 


