%nprocshared=4 
%mem=4GB 
# b3lyp/6-31+g(d,p) scrf=(iefpcm,solvent=acetonitrile) 

tmpdir/M3_conf_0_9.gjf 

0 1
C                   0.00000000    0.00000000    0.00000000 
H                   1.09350000    0.00000000    0.00000000 
H                  -0.39746000    0.00000000   -1.01785000 
H                  -0.32604000   -0.89641000    0.54181000 
H                  -0.34694000    0.87021000    0.56382000 


