%nprocshared=4 
%mem=4GB 
# b3lyp/6-31+g(d,p) scrf=(iefpcm,solvent=acetonitrile) 

tmpdir/M3_conf_0_12.gjf 

0 1
C                   0.00000000    0.00000000    0.00000000 
C                   1.50950000    0.00000000    0.00000000 
H                   1.90974000    0.00000000    1.01816000 
C                  -0.72185000   -0.68346000   -0.99148000 
C                  -0.71629000    0.71414000    0.97646000 
C                  -2.11762000   -0.65948000   -1.01689000 
H                  -0.18655000   -1.23953000   -1.75628000 
C                  -2.11021000    0.74924000    0.96588000 
H                  -0.17720000    1.25370000    1.75024000 
C                  -2.80011000    0.04692000   -0.02731000 
H                  -2.67311000   -1.17677000   -1.79203000 
H                  -2.64623000    1.31347000    1.72418000 
H                   1.89565000    0.89640000   -0.50077000 
H                   1.90846000   -0.87022000   -0.52827000 
H                  -3.92811000    0.12783000   -0.06091000 


