%nprocshared=4 
%mem=4GB 
# b3lyp/6-31+g(d,p) scrf=(iefpcm,solvent=acetonitrile) 

tmpdir/M3_conf_0_7.gjf 

0 1
C                   0.00000000    0.00000000    0.00000000 
C                   1.50460000    0.00000000    0.00000000 
C                  -0.72185000    0.00000000   -1.20422000 
C                  -0.71629000    0.03399000    1.20926000 
C                  -2.11762000    0.03417000   -1.21154000 
H                  -0.18655000   -0.02376000   -2.14951000 
C                  -2.11021000    0.06890000    1.22047000 
H                  -0.17720000    0.03923000    2.15257000 
C                  -2.80011000    0.05413000    0.00414000 
H                  -2.67311000    0.04820000   -2.14333000 
H                  -2.64623000    0.10324000    2.16503000 
H                   1.89075000    1.02227000    0.09627000 
H                   1.90253000   -0.57838000    0.83903000 
H                   1.90356000   -0.41682000   -0.92877000 
H                  -3.92811000    0.13982000    0.02240000 


