%nprocshared=4 
%mem=4GB 
# b3lyp/6-31+g(d,p) scrf=(iefpcm,solvent=acetonitrile) 

tmpdir/M3_conf_0_19.gjf 

0 1
C                   0.00000000    0.00000000    0.00000000 
S                   1.81000000    0.00000000    0.00000000 
O                   2.28519000    0.00000000    1.43433000 
C                  -0.70157000   -0.16311000    1.19384000 
C                  -0.66704000    0.26413000   -1.20034000 
C                  -2.09561000   -0.08759000    1.17599000 
H                  -0.16172000   -0.34266000    2.11760000 
C                  -2.05962000    0.33547000   -1.20007000 
H                  -0.11482000    0.40878000   -2.12491000 
C                  -2.79587000    0.16264000   -0.01491000 
H                  -2.64637000   -0.22216000    2.10295000 
H                  -2.58153000    0.53434000   -2.13202000 
H                   2.05442000   -1.33599000   -0.52222000 
H                  -3.88529000    0.24716000   -0.01890000 


