%nprocshared=4 
%mem=4GB 
# b3lyp/6-31+g(d,p) scrf=(iefpcm,solvent=acetonitrile) 

tmpdir/M3_conf_0_25.gjf 

0 1
S                   0.00000000    0.00000000    0.00000000 
N                   1.78020000    0.00000000    0.00000000 
C                   2.45715000    0.00000000    1.22831000 
H                  -0.23155000    1.20096000   -0.63588000 
O                  -0.45185000   -1.07252000   -0.96367000 
H                   2.27321000    0.16967000   -0.86163000 
H                   1.99446000   -0.43688000    2.08466000 
O                   3.60123000    0.46355000    1.30960000 


