%nprocshared=4 
%mem=4GB 
# b3lyp/6-31+g(d,p) scrf=(iefpcm,solvent=acetonitrile) 

tmpdir/M3_conf_0_6.gjf 

0 1
C                   0.00000000    0.00000000    0.00000000 
S                   1.86180000    0.00000000    0.00000000 
C                  -0.70157000    0.00000000   -1.20494000 
C                  -0.66704000   -0.09921000    1.22504000 
C                  -2.09561000   -0.07241000   -1.17702000 
H                  -0.16172000    0.05284000   -2.14450000 
C                  -2.05962000   -0.16993000    1.23443000 
H                  -0.11482000   -0.11737000    2.16068000 
C                  -2.79587000   -0.15913000    0.03679000 
H                  -2.64637000   -0.06456000   -2.11367000 
H                  -2.58153000   -0.24081000    2.18473000 
O                   2.27575000   -0.19672000   -1.43981000 
H                   2.10622000    1.39438000    0.33656000 
H                  -3.88529000   -0.24233000    0.05218000 


