%nprocshared=4 
%mem=4GB 
# b3lyp/6-31+g(d,p) scrf=(iefpcm,solvent=acetonitrile) 

tmpdir/M3_conf_0_11.gjf 

0 1
C                   0.00000000    0.00000000    0.00000000 
C                   1.50950000    0.00000000    0.00000000 
H                   1.90977000    0.00000000    1.02137000 
C                  -0.72185000    1.19891000   -0.11291000 
C                  -0.71629000   -1.20075000    0.14722000 
C                  -2.11762000    1.20940000   -0.07958000 
H                  -0.18655000    2.13782000   -0.22519000 
C                  -2.11021000   -1.20863000    0.18303000 
H                  -0.17720000   -2.13941000    0.24088000 
C                  -2.80011000    0.00095000    0.05428000 
H                  -2.67311000    2.13841000   -0.15297000 
H                  -2.64623000   -2.14582000    0.30578000 
H                   1.90743000   -0.88965000   -0.49700000 
H                   1.90846000    0.88560000   -0.50207000 
H                  -3.92811000   -0.00919000    0.14130000 


