%nprocshared=4 
%mem=4GB 
# b3lyp/6-31+g(d,p) scrf=(iefpcm,solvent=acetonitrile) 

tmpdir/M3_conf_0_28.gjf 

0 2
C                   0.00000000    0.00000000    0.00000000 
C                   1.47380000    0.00000000    0.00000000 
N                   2.05340000    0.00000000    1.27713000 
H                  -0.61629000    0.47599000    0.75324000 
H                  -0.46928000   -0.43381000   -0.86553000 
O                   2.09459000    0.04444000   -1.06914000 
H                   1.52757000   -0.43553000    2.09304000 
H                   3.02141000    0.25265000    1.39281000 


