%nprocshared=4 
%mem=4GB 
# b3lyp/6-31+g(d,p) scrf=(iefpcm,solvent=acetonitrile) 

tmpdir/M3_conf_0_14.gjf 

0 1
H                   0.00000000    0.00000000    0.00000000 
C                   1.09700000    0.00000000    0.00000000 
H                   1.44703000    0.00000000    1.03649000 
H                   1.48164000   -0.87112000   -0.53591000 
H                   1.42652000    0.93270000   -0.46584000 


