%nprocshared=4 
%mem=4GB 
# b3lyp/6-31+g(d,p) scrf=(iefpcm,solvent=acetonitrile) 

tmpdir/M3_conf_0_38.gjf 

0 1
H                   0.00000000    0.00000000    0.00000000 
C                   1.09940000    0.00000000    0.00000000 
H                   1.45472000    0.00000000    1.03723000 
H                   1.48907000    0.88027000   -0.49702000 
H                   1.44591000   -0.92924000   -0.45443000 


