%nprocshared=4 
%mem=4GB 
# b3lyp/6-31+g(d,p) scrf=(iefpcm,solvent=acetonitrile) 

tmpdir/M3_conf_0_57.gjf 

0 1
O                   0.00000000    0.00000000    0.00000000 
S                   1.48320000    0.00000000    0.00000000 
C                   2.04479000    0.00000000    1.70910000 
C                   3.30932000   -0.51711000    2.00666000 
C                   1.21111000    0.52938000    2.69875000 
C                   3.74446000   -0.50330000    3.33345000 
H                   3.93143000   -0.93175000    1.22104000 
C                   1.66107000    0.53702000    4.02096000 
H                   0.22979000    0.91336000    2.44283000 
C                   2.92358000    0.02385000    4.33621000 
H                   4.72069000   -0.90700000    3.58220000 
H                   1.02403000    0.93911000    4.80223000 
H                   3.26687000    0.03136000    5.36607000 
H                   1.91886000    1.26203000   -0.49408000 
O                   2.18948000   -1.07746000   -0.72785000 


