%nprocshared=4 
%mem=4GB 
# b3lyp/6-31+g(d,p) scrf=(iefpcm,solvent=acetonitrile) 

tmpdir/M3_conf_0_56.gjf 

0 1
O                   0.00000000    0.00000000    0.00000000 
S                   1.47970000    0.00000000    0.00000000 
C                   2.02067000    0.00000000    1.71574000 
C                   1.16853000   -0.52001000    2.69472000 
C                   3.28540000    0.50640000    2.02991000 
C                   1.59901000   -0.52825000    4.02309000 
H                   0.18797000   -0.89664000    2.42495000 
C                   3.70196000    0.49021000    3.36295000 
H                   3.92209000    0.91506000    1.25303000 
C                   2.86212000   -0.02662000    4.35502000 
H                   0.94693000   -0.92227000    4.79601000 
H                   4.67853000    0.88472000    3.62477000 
H                   3.19122000   -0.03500000    5.38950000 
H                   1.94741000   -1.24499000   -0.50782000 
O                   2.18765000    1.08166000   -0.72712000 


