%nprocshared=4 
%mem=4GB 
# b3lyp/6-31+g(d,p) scrf=(iefpcm,solvent=acetonitrile) 

tmpdir/M3_frag_conf_0_0.gjf 

0 1
C                   2.51079200   -2.08524600   -0.07246200 
C                   3.08736100   -1.74419800    1.15319000 
C                   3.13986700   -1.80102100   -1.28954200 
C                   4.32711200   -1.10004200    1.15563600 
H                   2.58118000   -1.98382400    2.08079000 
C                   4.37555500   -1.15181700   -1.27106200 
H                   2.68421100   -2.09561700   -2.22863900 
C                   4.96750700   -0.80433800   -0.05139300 
H                   4.79018800   -0.83287800    2.10010200 
H                   4.87803300   -0.92763300   -2.20654700 
H                   5.93149800   -0.30505500   -0.04285800 
H                   1.53273777   -2.64138460   -0.08450157 


