%nprocshared=4 
%mem=4GB 
# b3lyp/6-31+g(d,p) scrf=(iefpcm,solvent=acetonitrile) 

tmpdir/M3_ref_4.gjf 

0 2
C                  -0.08266000    0.72606700   -0.02166700 
C                  -1.06419800    0.38534800    1.02362500 
C                  -2.28046500   -0.33321900    0.56154300 
H                   0.98046861    0.84036558    0.24668344 
O                  -0.45727500    0.92555100   -1.18366300 
H                  -0.99519574    0.69695559    2.05895499 
H                  -2.18579300   -0.68057300   -0.46778200 
H                  -2.53698500   -1.16598300    1.22537400 
H                  -3.25317046    0.31410617    0.57241743 


