%nprocshared=4 
%mem=4GB 
# b3lyp/6-31+g(d,p) scrf=(iefpcm,solvent=acetonitrile) 

tmpdir/M3_ref_28.gjf 

0 2
C                  -1.06419800    0.38534800    1.02362500 
C                  -0.08266000    0.72606700   -0.02166700 
N                   1.26990200    0.87148300    0.31974100 
H                  -0.99519574    0.69695559    2.05895499 
H                  -1.94463665   -0.13481259    0.68913031 
O                  -0.45727500    0.92555100   -1.18366300 
H                   1.66363747    0.33342543    1.14877347 
H                   1.90173155    1.34222987   -0.30756253 


