%nprocshared=4 
%mem=4GB 
# b3lyp/6-31+g(d,p) scrf=(iefpcm,solvent=acetonitrile) 

tmpdir/M3_ref_17.gjf 

0 1
S                   1.92875000   -0.02886300    1.70698300 
O                   2.71058100    0.95044200    2.55118400 
H                   2.86769582   -0.80093098    1.05697874 
H                   1.39023400    0.70704381    0.57310688 


