%nprocshared=4 
%mem=4GB 
# b3lyp/6-31+g(d,p) scrf=(iefpcm,solvent=acetonitrile) 

tmpdir/M3_ref_50.gjf 

0 1
S                  -3.83660700    0.70237700    0.57894000 
O                  -4.26548800    0.85345800    1.99072900 
H                  -2.65148816   -0.08630702    0.56569088 
O                  -3.61697700    1.92366600   -0.22714800 
H                  -4.75311986   -0.08576250   -0.06593886 


