%nprocshared=4 
%mem=4GB 
# b3lyp/6-31+g(d,p) scrf=(iefpcm,solvent=acetonitrile) 

tmpdir/M3_ref_27.gjf 

0 1
C                  -0.08266000    0.72606700   -0.02166700 
O                  -0.45727500    0.92555100   -1.18366300 
H                  -0.79318162    0.47942529    0.73500524 
H                   0.98046861    0.84036558    0.24668344 


