%nprocshared=4 
%mem=4GB 
# b3lyp/6-31+g(d,p) scrf=(iefpcm,solvent=acetonitrile) 

tmpdir/M3_ref_26.gjf 

0 1
C                   2.17227200    1.54379700   -0.57616500 
N                   1.26990200    0.87148300    0.31974100 
C                  -0.08266000    0.72606700   -0.02166700 
C                   2.64940900    2.80928500   -0.21644500 
C                   2.58084700    0.94662100   -1.77545000 
C                   3.54115600    3.47905400   -1.05996000 
H                   2.31760700    3.25886600    0.71296700 
C                   3.46299500    1.62538300   -2.61764600 
H                   2.20391900   -0.03358200   -2.04410100 
C                   3.94664900    2.88967200   -2.26059400 
H                   3.91170300    4.46046300   -0.77997100 
H                   3.77392200    1.16650300   -3.55133600 
H                   4.63497300    3.41273800   -2.91775100 
H                   1.66363747    0.33342543    1.14877347 
H                  -0.79318162    0.47942529    0.73500524 
O                  -0.45727500    0.92555100   -1.18366300 


