%chk=bnts-ts-pro.chk
%nprocshared=16
%mem=16GB
# b3lyp/6-31g(d) nosymm em=gd3

tmpdir/Subs_0_0.gjf

0 1
 C                  2.81536300   -1.44991700    1.20387300
 C                  1.19388200    1.21002400   -0.32339600
 C                  0.87872700   -0.24557100   -0.15339100
 C                  1.51958800   -1.31472400    0.45433800
 H                  3.73732737   -1.42808532    0.56911257
 H                  2.75967300   -2.42374600    1.70115300
 H                  2.89196300   -0.69966100    2.00040100
 H                  2.22608625    1.48158839   -0.02283274
 H                  1.07260500    1.46860300   -1.39113100
 H                  0.39124189    1.81223275    0.29539138

