%chk=Ene-Me-optimum.chk
%nprocshared=16
%mem=16GB
#p MP2 IOp(3/125=0333312000) geom=connectivity 

title

0 1
C                   0.60443800    0.00000300  -40.00006300 
C                  -0.60445000    0.00011900  -39.99967700 
C                  -2.06598900   -0.00002900  -40.00009100 
H                  -2.46568800    0.81949400  -40.61043100 
H                  -2.46544700   -0.93840000  -40.40488600 
H                  -2.46613800    0.11857900  -38.98533400 
C                   2.06599200   -0.00001100  -40.00004100 
H                   2.46572500   -0.90784100  -40.46915600 
H                   2.46581400    0.86012500  -40.55163300 
H                   2.46579200    0.04755200  -38.97933000 

 1 2 3.0 7 1.0
 2 3 1.0
 3 4 1.0 5 1.0 6 1.0
 4
 5
 6
 7 8 1.0 9 1.0 10 1.0
 8
 9
 10

