%nprocshared=4 
%mem=4GB 
# b3lyp/6-31g(d) 

tmpdir/M2_conf_0_32.gjf 

0 1
C                   0.00000000    0.00000000    0.00000000 
H                   1.09410000    0.00000000    0.00000000 
H                  -0.36880000    0.00000000   -1.05372000 
H                  -0.35990000   -0.87897000    0.56668000 
H                  -0.32449000    0.91614000    0.50678000 


