%nprocshared=4 
%mem=4GB 
# b3lyp/6-31g(d) 

tmpdir/M2_conf_0_24.gjf 

0 1
C                   0.00000000    0.00000000    0.00000000 
C                   1.53960000    0.00000000    0.00000000 
H                  -0.41722000    0.00000000   -1.07454000 
H                  -0.38099000   -0.91745000    0.47050000 
H                  -0.37863000    0.85707000    0.58159000 
H                   1.95944000   -0.00433000    1.03444000 
H                   1.90242000   -0.87503000   -0.55146000 
H                   1.89598000    0.88889000   -0.53135000 


