%nprocshared=4 
%mem=4GB 
# b3lyp/6-31g(d) 

tmpdir/M2_conf_0_22.gjf 

0 1
C                   0.00000000    0.00000000    0.00000000 
H                   1.09280000    0.00000000    0.00000000 
H                  -0.31541000    0.00000000   -1.10871000 
H                  -0.33510000   -0.91489000    0.51657000 
H                  -0.38335000    0.89462000    0.52529000 


