%nprocshared=4 
%mem=4GB 
# b3lyp/6-31g(d) 

tmpdir/M2_conf_0_9.gjf 

0 1
C                   0.00000000    0.00000000    0.00000000 
C                   1.46340000    0.00000000    0.00000000 
H                   1.84957000    0.00000000    1.02956000 
N                  -1.09787000    0.01185000    0.01037000 
H                   1.82655000   -0.93604000   -0.44767000 
H                   1.89961000    0.86863000   -0.54913000 


