%nprocshared=4 
%mem=4GB 
# b3lyp/6-31g(d) 

tmpdir/M2_conf_0_19.gjf 

0 1
H                   0.00000000    0.00000000    0.00000000 
N                   1.02130000    0.00000000    0.00000000 
C                   1.61357000    0.00000000    1.34158000 
H                   1.27332000    1.04635000   -0.44437000 
H                   1.18429000   -0.86911000    1.85986000 
H                   1.33072000    0.90218000    1.90924000 
H                   2.71497000   -0.08825000    1.29294000 


