%nprocshared=4 
%mem=4GB 
# b3lyp/6-31g(d) 

tmpdir/M2_ref_22.gjf 

0 1
C                   1.17580500    0.81372600    0.03333300 
H                   1.13150300    1.77818300   -0.49221400 
H                   2.10761790    0.27342833   -0.37710465 
H                   1.27141300    1.02375800    1.11167600 
H                   0.25682231    0.22943200   -0.15961881 


