%nprocshared=4 
%mem=4GB 
# b3lyp/6-31g(d) 

tmpdir/M2_ref_14.gjf 

0 1
N                   2.36130100    0.12633400   -0.48884500 
O                   2.65858300   -0.96763600    0.41397000 
H                   3.16244400    0.74581100   -0.35676600 
H                   1.53122974    0.60763832   -0.12322171 
H                   2.63968900   -1.73452300   -0.17951500 


