%chk=indole-Ts.chk
%nprocshared=24
%mem=16GB
# genecp scrf=(smd,solvent=n-octane) geom=connectivity m06 sp

title card

0 1
 Ir                 0.00000000    0.00000000    0.00000000
 B                  0.00000000    0.00000000    2.03650433
 B                  2.07251206    0.00000000    0.13778621
 O                  0.35995225   -1.07611410    2.86229005
 O                 -0.48442239    1.05022904    2.82860199
 B                  0.52856101    2.05903422    0.12333367
 N                 -2.04936424    0.76142091   -0.34783275
 N                 -0.25516373    0.12485426   -2.25962837
 O                  2.89455690    0.07797921   -0.99171410
 O                  2.83530154   -0.09269013    1.29053833
 C                  0.33690301   -0.65031374    4.22795170
 C                 -0.48109213    0.65551808    4.20512082
 O                 -0.27575414    3.04867070   -0.44393533
 O                  1.64851100    2.63440607    0.71751004
 C                 -2.46988261    0.84670500   -1.63161067
 C                 -2.87691373    1.11751533    0.64630278
 C                 -1.48852101    0.48641675   -2.68352125
 C                  0.68715554   -0.19315598   -3.16062519
 C                  4.26039787   -0.02629117   -0.57047643
 C                  4.19770589    0.17444445    0.95579673
 H                 -0.11398338   -1.42942551    4.85179388
 H                  1.36764962   -0.48605642    4.56516008
 H                 -0.03507889    1.44961457    4.81271115
 H                 -1.51588388    0.50284863    4.54110835
 C                  0.25558374    4.33721135   -0.11637192
 C                  1.65249316    4.04256971    0.46825101
 C                 -3.77004340    1.27714821   -1.92773243
 C                 -4.17954360    1.54760900    0.41779488
 H                 -2.45384637    1.06769020    1.64250176
 C                 -1.79630739    0.51983062   -4.05051179
 C                  0.44630749   -0.18030855   -4.53205865
 H                  1.65803802   -0.44279256   -2.74752300
 H                  4.86082040    0.73433630   -1.08065901
 H                  4.64761721   -1.01712104   -0.84383590
 H                  4.85428500   -0.50720982    1.50647394
 H                  4.43860810    1.20632168    1.24179213
 H                  0.29095399    4.95935820   -1.01749049
 H                 -0.40522381    4.82396521    0.61276477
 H                  1.84676250    4.57895763    1.40324388
 H                  2.45728374    4.28112052   -0.23973140
 C                 -4.63546361    1.62295591   -0.89659216
 H                 -4.10686316    1.34578475   -2.95475553
 H                 -4.81318245    1.81728706    1.25610336
 C                 -0.82213574    0.17949334   -4.98311496
 H                 -2.78573979    0.80272788   -4.38833710
 H                  1.23965154   -0.44810553   -5.22209901
 H                 -5.64609670    1.95243849   -1.11909750
 H                 -1.05273914    0.19832083   -6.04430018
 C                 -0.83012467   -2.04493204   -0.09194709
 C                 -1.38403643   -2.72901223   -1.16305355
 N                 -1.02846368   -2.82093114    1.04417913
 H                  0.70397951   -1.47785731    0.01947646
 C                 -1.96776746   -3.94202909   -0.67029020
 H                 -1.38022436   -2.40187177   -2.19381589
 C                 -1.71515505   -3.97082281    0.73377509
 H                 -0.63848659   -2.56302791    1.94315879
 C                 -2.67578068   -5.01134075   -1.25028711
 C                 -2.14517677   -5.02664905    1.54666574
 C                 -3.10231030   -6.06107568   -0.44518477
 H                 -2.88417152   -5.01739136   -2.31810770
 C                 -2.83875637   -6.06964280    0.94117054
 H                 -1.94187824   -5.03265074    2.61497454
 H                 -3.64763891   -6.89143370   -0.88721389
 H                 -3.18286144   -6.90513906    1.54564079

 1 6 1.0 2 1.0 3 1.0 8 1.0 7 1.0
 2 5 1.0 4 1.0
 3 10 1.0 9 1.0
 4 11 1.0
 5 12 1.0
 6 14 1.0 13 1.0
 7 15 2.0 16 1.0
 8 17 2.0 18 1.0
 9 19 1.0
 10 20 1.0
 11 12 1.0 21 1.0 22 1.0
 12 24 1.0 23 1.0
 13 25 1.0
 14 26 1.0
 15 17 1.0 27 1.0
 16 28 2.0 29 1.0
 17 30 1.0
 18 31 2.0 32 1.0
 19 20 1.0 34 1.0 33 1.0
 20 35 1.0 36 1.0
 21
 22
 23
 24
 25 26 1.0 37 1.0 38 1.0
 26 40 1.0 39 1.0
 27 41 2.0 42 1.0
 28 41 1.0 43 1.0
 29
 30 44 2.0 45 1.0
 31 46 1.0 44 1.0
 32
 33
 34
 35
 36
 37
 38
 39
 40
 41 47 1.0
 42
 43
 44 48 1.0
 45
 46
 47
 48
 49 50 2.0 51 1.0 52 1.0
 50 54 1.0 53 1.5
 51 55 1.5 56 1.0
 52
 53 55 1.5 57 1.5
 54
 55 58 1.5
 56
 57 59 1.5 60 1.0
 58 61 1.5 62 1.0
 59 61 2.0 63 1.0
 60
 61 64 1.0
 62
 63
 64

-Ir 0
SDD
****
-C -H -O -N -B 0
6-311G(d,p)
****

!  Q=17., MEFIT, MCDHF+Breit+shift, Ref 48.
-Ir 0
ECP60MDF 5 60
H-Komponente
1
2 1.000000 0.000000
S-H
2
2 13.831474 426.958149
2 7.047914 65.338813
P-H
4
2 11.106433 88.075442
2 10.456552 176.124770
2 6.379614 12.682260
2 5.064726 24.635949
D-H
4
2 7.548754 46.433258
2 7.265308 69.638074
2 3.800969 6.150248
2 3.718280 9.463560
F-H
2
2 3.098706 9.483610
2 3.049461 12.642742
G-H
2
2 4.969790 -10.410697
2 4.935614 -12.863196
! References:
! [48] D. Figgen, K.A. Peterson, M. Dolg, H. Stoll, J. Chem. Phys. 130, 164108 (2009)



















