%nprocshared=8 
%mem=8GB 
# M062X/def2TZVPP 

tmpdir/M1_conf_0_5.gjf 

0 1
B                  -2.05211806    1.55160535    0.07892296 
H                  -1.75474609    0.39818605    0.26855651 
H                  -2.97966736    2.06399785    0.55158413 
H                  -1.82467801    1.81838208   -1.03764253 


