%nprocshared=8 
%mem=8GB 
# M062X/def2TZVPP 

tmpdir/M1_conf_0_7.gjf 

0 1
N                  -0.17560917    0.07640956    0.15457459 
H                   0.05920352    0.13708033   -0.83061422 
H                   0.37916120   -0.63753952    0.60830611 
H                  -1.20726061    0.01452321    0.28160047 


