%nprocshared=8 
%mem=8GB 
# M062X/def2TZVPP 

tmpdir/M1_conf_0_6.gjf 

0 1
C                  -1.64899912   -0.01197565    0.33599115 
H                  -2.09087752   -0.70697336   -0.37504057 
H                  -1.83780775   -0.35483560    1.35187007 
H                  -0.49089841    0.05749610    0.19339574 
H                  -1.92623490    1.06334122    0.15919841 


