%nprocshared=8 
%mem=8GB 
# M062X/def2TZVPP 

tmpdir/M1_conf_0_4.gjf 

0 1
C                  -1.92433371    3.21987361   -1.64466635 
H                  -2.95435676    3.55825855   -1.52051693 
H                  -1.27550149    3.86533442   -1.04214888 
H                  -1.64045245    3.31356447   -2.69212659 
H                  -1.80457141    2.11362011   -1.33248337 


