%nprocshared=8 
%mem=8GB 
# M062X/def2TZVPP 

tmpdir/M1_ref_6.gjf 

0 1
C                   0.34765889   -1.41637150    0.28738069 
H                  -0.48403329   -2.13238119    0.17629062 
H                   0.52393733   -1.35095828    1.36634202 
H                   1.31184212   -1.74474857   -0.23898021 
H                  -0.01352871   -0.46003787   -0.07811369 


