%nprocshared=6 
%mem=6GB 
# M062X/def2TZVPP 

tmpdir/M2_conf_0_6.gjf 

0 1
B                   0.00000000    0.00000000    0.00000000 
C                   1.63500000    0.00000000    0.00000000 
H                  -0.62303000    0.00000000   -0.94740000 
H                  -0.53619000    0.03986000    0.99252000 
H                   2.06782000   -0.24838000    1.03220000 
H                   1.95162000    0.98255000   -0.38882000 
H                   1.99932000   -0.72661000   -0.73401000 


