%nprocshared=6 
%mem=6GB 
# M062X/def2TZVPP 

tmpdir/M2_conf_0_2.gjf 

0 1
N                   0.00000000    0.00000000    0.00000000 
C                   1.48710000    0.00000000    0.00000000 
H                  -0.35601000    0.00000000   -0.94614000 
H                  -0.38004000    0.80175000    0.48193000 
H                   1.89693000   -0.58176000   -0.81983000 
H                   1.93049000    1.00735000   -0.07398000 
H                   1.85287000   -0.40236000    0.95067000 


