%nprocshared=6 
%mem=6GB 
# M062X/def2TZVPP 

tmpdir/M2_conf_0_8.gjf 

0 1
B                   0.00000000    0.00000000    0.00000000 
O                   1.40800000    0.00000000    0.00000000 
H                  -0.55315000    0.00000000   -1.02474000 
H                  -0.53705000    0.03799000    0.99793000 
H                   1.89823000    0.02011000    0.84070000 


