%nprocshared=6 
%mem=6GB 
# M062X/def2TZVPP 

tmpdir/M2_conf_0_37.gjf 

0 1
O                   0.00000000    0.00000000    0.00000000 
C                   1.41720000    0.00000000    0.00000000 
H                   1.80302000    0.00000000    1.01943000 
H                  -0.44329000    0.65828000    0.38067000 
H                   1.80576000    0.87703000   -0.51805000 
H                   1.74551000   -0.90046000   -0.51278000 


