%nprocshared=6 
%mem=6GB 
# M062X/def2TZVPP 

tmpdir/M2_conf_0_34.gjf 

0 1
C                   0.00000000    0.00000000    0.00000000 
H                   1.09570000    0.00000000    0.00000000 
H                  -0.41381000    0.00000000   -1.08764000 
H                  -0.34611000   -0.87700000    0.54737000 
H                  -0.36267000    0.90045000    0.48911000 


