%nprocshared=6 
%mem=6GB 
# M062X/def2TZVPP 

tmpdir/M2_conf_0_29.gjf 

0 1
O                   0.00000000    0.00000000    0.00000000 
C                   1.41280000    0.00000000    0.00000000 
H                   1.81730000    0.00000000    1.01389000 
H                  -0.45712000   -0.57997000    0.48631000 
H                   1.80207000   -0.87030000   -0.53082000 
H                   1.74630000    0.90126000   -0.50887000 


