%nprocshared=6 
%mem=6GB 
# M062X/def2TZVPP 

tmpdir/M2_conf_0_1.gjf 

0 1
N                   0.00000000    0.00000000    0.00000000 
H                   1.01160000    0.00000000    0.00000000 
H                  -0.31758000    0.00000000   -0.95972000 
H                  -0.38440000   -0.79952000    0.50602000 


