%nprocshared=6 
%mem=6GB 
# M062X/def2TZVPP 

tmpdir/M2_conf_0_15.gjf 

0 1
N                   0.00000000    0.00000000    0.00000000 
C                   1.45870000    0.00000000    0.00000000 
H                   1.85653000    0.00000000    1.02886000 
H                  -0.35601000    0.94360000    0.06929000 
H                  -0.38004000   -0.53936000    0.76430000 
H                   1.86853000    0.86023000   -0.52016000 
H                   1.82447000   -0.91874000   -0.47075000 


