%nprocshared=6 
%mem=6GB 
# M062X/def2TZVPP 

tmpdir/M2_conf_0_10.gjf 

0 1
C                   0.00000000    0.00000000    0.00000000 
B                   1.57860000    0.00000000    0.00000000 
O                   2.01335000    0.00000000    1.28663000 
H                  -0.43282000    0.28960000    1.02140000 
H                  -0.31662000   -0.99736000   -0.34908000 
H                  -0.36432000    0.69657000   -0.76257000 
H                   2.20163000   -0.03802000   -0.94663000 
H                   2.96674000   -0.02011000    1.48194000 


