%nprocshared=6 
%mem=6GB 
# M062X/def2TZVPP 

tmpdir/M2_conf_0_20.gjf 

0 1
O                   0.00000000    0.00000000    0.00000000 
C                   1.40010000    0.00000000    0.00000000 
H                  -0.45712000    0.00000000   -0.75687000 
H                   1.78937000    0.96593000   -0.32582000 
H                   1.73360000   -0.18932000    1.01753000 
H                   1.79822000   -0.77884000   -0.65306000 


