%nprocshared=6 
%mem=6GB 
# M062X/def2TZVPP 

tmpdir/M2_conf_0_25.gjf 

0 1
C                   0.00000000    0.00000000    0.00000000 
H                   1.08900000    0.00000000    0.00000000 
H                  -0.35576000    0.00000000   -1.10410000 
H                  -0.35364000   -0.89010000    0.52285000 
H                  -0.35341000    0.88510000    0.53224000 


