%nprocshared=6 
%mem=6GB 
# M062X/def2TZVPP 

tmpdir/M2_conf_0_23.gjf 

0 1
B                   0.00000000    0.00000000    0.00000000 
O                   1.35810000    0.00000000    0.00000000 
C                   2.00414000    0.00000000    1.26138000 
H                  -0.55315000    0.02450000   -1.02444000 
H                  -0.53705000    0.01412000    0.99855000 
H                   1.73634000    0.88751000    1.83510000 
H                   1.72691000   -0.88191000    1.83885000 
H                   3.07609000   -0.00669000    1.08124000 


