%nprocshared=6 
%mem=6GB 
# M062X/def2TZVPP 

tmpdir/M2_conf_0_33.gjf 

0 1
C                   0.00000000    0.00000000    0.00000000 
H                   1.09130000    0.00000000    0.00000000 
H                  -0.41476000    0.00000000   -1.08728000 
H                  -0.34604000    0.87713000    0.54681000 
H                  -0.36374000   -0.89952000    0.49003000 


