%nprocshared=6 
%mem=6GB 
# M062X/def2TZVPP 

tmpdir/M2_conf_0_39.gjf 

0 1
H                   0.00000000    0.00000000    0.00000000 
C                   1.09020000    0.00000000    0.00000000 
H                   1.43209000    0.00000000    1.03499000 
H                   1.50496000   -0.92267000   -0.57520000 
H                   1.45394000    0.89171000   -0.50410000 


