%nprocshared=6 
%mem=6GB 
# M062X/def2TZVPP 

tmpdir/M2_conf_0_27.gjf 

0 1
O                   0.00000000    0.00000000    0.00000000 
C                   1.41280000    0.00000000    0.00000000 
H                   1.80794000    0.00000000    1.01714000 
H                  -0.45712000    0.71717000    0.24191000 
H                   1.74630000   -0.90365000   -0.50462000 
H                   1.81092000    0.86774000   -0.52926000 


