%nprocshared=6 
%mem=6GB 
# M062X/def2TZVPP 

tmpdir/M2_conf_0_41.gjf 

0 1
H                   0.00000000    0.00000000    0.00000000 
C                   1.09000000    0.00000000    0.00000000 
H                   1.44192000    0.00000000    1.02846000 
H                   1.50381000   -0.95575000   -0.51914000 
H                   1.43611000    0.89960000   -0.50938000 


