%nprocshared=6 
%mem=6GB 
# M062X/def2TZVPP 

tmpdir/M2_conf_0_36.gjf 

0 1
O                   0.00000000    0.00000000    0.00000000 
C                   1.41720000    0.00000000    0.00000000 
H                   1.81393000    0.00000000    1.01545000 
H                  -0.44329000   -0.66256000    0.37318000 
H                   1.80480000   -0.87716000   -0.51813000 
H                   1.74551000    0.89948000   -0.51451000 


