%nprocshared=6 
%mem=6GB 
# M062X/def2TZVPP 

tmpdir/M2_conf_0_24.gjf 

0 1
C                   0.00000000    0.00000000    0.00000000 
H                   1.09600000    0.00000000    0.00000000 
H                  -0.41382000    0.00000000   -1.08368000 
H                  -0.35241000    0.90371000    0.49149000 
H                  -0.35233000   -0.86777000    0.56074000 


