%nprocshared=6 
%mem=6GB 
# M062X/def2TZVPP 

tmpdir/M2_conf_0_32.gjf 

0 1
H                   0.00000000    0.00000000    0.00000000 
C                   1.08740000    0.00000000    0.00000000 
H                   1.42889000    0.00000000    1.03681000 
H                   1.44316000   -0.94620000   -0.56898000 
H                   1.44104000    0.90678000   -0.49337000 


