%nprocshared=6 
%mem=6GB 
# M062X/def2TZVPP 

tmpdir/M2_conf_0_22.gjf 

0 1
O                   0.00000000    0.00000000    0.00000000 
C                   1.40750000    0.00000000    0.00000000 
H                  -0.44329000    0.00000000   -0.76043000 
H                   1.79606000   -0.88751000   -0.49988000 
H                   1.79510000    0.88191000   -0.50999000 
H                   1.73581000    0.00669000    1.03621000 


