%nprocshared=6 
%mem=6GB 
# M062X/def2TZVPP 

tmpdir/M2_conf_0_14.gjf 

0 1
N                   0.00000000    0.00000000    0.00000000 
C                   1.45870000    0.00000000    0.00000000 
B                   1.72441000    0.00000000    1.55608000 
H                  -0.35601000   -0.54754000    0.77161000 
H                  -0.38004000   -0.37496000   -0.85701000 
H                   1.90209000   -0.86434000   -0.52264000 
H                   1.82447000    0.87831000   -0.54245000 
H                   2.73723000    0.22165000    2.01518000 
H                   0.87264000   -0.27096000    2.24547000 


