%nprocshared=6 
%mem=6GB 
# M062X/def2TZVPP 

tmpdir/M2_conf_0_30.gjf 

0 1
H                   0.00000000    0.00000000    0.00000000 
C                   1.09120000    0.00000000    0.00000000 
H                   1.43750000    0.00000000    1.03078000 
H                   1.50502000   -0.95199000   -0.51775000 
H                   1.44353000    0.90720000   -0.49442000 


