%nprocshared=6 
%mem=6GB 
# M062X/def2TZVPP 

tmpdir/M2_conf_0_7.gjf 

0 1
B                   0.00000000    0.00000000    0.00000000 
O                   1.39600000    0.00000000    0.00000000 
H                  -0.63985000    0.00000000   -0.97296000 
H                  -0.53463000   -0.03990000    0.99336000 
H                   1.89763000    0.03203000   -0.82996000 


