%nprocshared=6 
%mem=6GB 
# M062X/def2TZVPP 

tmpdir/M2_conf_0_31.gjf 

0 1
H                   0.00000000    0.00000000    0.00000000 
C                   1.09120000    0.00000000    0.00000000 
H                   1.43522000    0.00000000    1.03597000 
H                   1.50502000    0.91018000   -0.58815000 
H                   1.44361000   -0.90328000   -0.49228000 


