%nprocshared=6 
%mem=6GB 
# M062X/def2TZVPP 

tmpdir/M2_conf_0_13.gjf 

0 1
C                   0.00000000    0.00000000    0.00000000 
H                   1.08870000    0.00000000    0.00000000 
H                  -0.38290000    0.00000000   -1.08067000 
H                  -0.36113000    0.85519000    0.56282000 
H                  -0.28606000   -0.89892000    0.57179000 


