%nprocshared=6 
%mem=6GB 
# M062X/def2TZVPP 

tmpdir/M2_ref_15.gjf 

0 1
N                   1.57433794   -1.83414819   -0.38228030 
C                   0.34765889   -1.41637150    0.28738069 
H                  -0.48403329   -2.13238119    0.17629062 
H                   1.56486511   -1.54988166   -1.35238812 
H                   1.70522894   -2.83467573   -0.34611959 
H                  -0.01352871   -0.46003787   -0.07811369 
H                   0.52393733   -1.35095828    1.36634202 


