%nprocshared=6 
%mem=6GB 
# M062X/def2TZVPP 

tmpdir/M2_ref_17.gjf 

0 1
B                  -0.17753149   -0.02579991   -0.24407203 
C                   0.34765889   -1.41637150    0.28738069 
H                  -0.48403329   -2.13238119    0.17629062 
H                  -0.97643508    0.58149522    0.28373191 
H                   0.23574877    0.36661949   -1.21842394 
H                   1.31184212   -1.74474857   -0.23898021 
H                   0.52393733   -1.35095828    1.36634202 


