%nprocshared=6 
%mem=6GB 
# M062X/def2TZVPP 

tmpdir/M2_ref_37.gjf 

0 1
O                   0.31970220    0.44633527   -1.41635304 
C                  -0.14512688    1.67638702   -1.94492662 
H                   0.04661270    2.49396636   -1.25007974 
H                  -0.00258230    0.14031849   -0.65653324 
H                  -1.21639868    1.63430638   -2.14261544 
H                   0.38933317    1.85730279   -2.87406430 


