%nprocshared=6 
%mem=6GB 
# M062X/def2TZVPP 

tmpdir/M2_ref_21.gjf 

0 1
B                  -0.17753149   -0.02579991   -0.24407203 
O                  -1.13872374    0.70486068    0.39094960 
C                  -1.69922068    0.26960066    1.61255371 
H                   0.20988990   -1.05159398    0.14796895 
H                   0.23574877    0.36661949   -1.21842394 
H                  -0.97903174    0.36428605    2.42682036 
H                  -2.55936524    0.89903077    1.82787369 
H                  -2.02797854   -0.76959552    1.55195751 


