%nprocshared=6 
%mem=6GB 
# M062X/def2TZVPP 

tmpdir/M2_ref_23.gjf 

0 1
B                  -0.17753149   -0.02579991   -0.24407203 
O                   0.31970220    0.44633527   -1.41635304 
C                  -0.14512688    1.67638702   -1.94492662 
H                   0.20988990   -1.05159398    0.14796895 
H                  -0.97643508    0.58149522    0.28373191 
H                  -1.21639868    1.63430638   -2.14261544 
H                   0.04661270    2.49396636   -1.25007974 
H                   0.38933317    1.85730279   -2.87406430 


