%nprocshared=6 
%mem=6GB 
# M062X/def2TZVPP 

tmpdir/M2_ref_24.gjf 

0 1
C                  -1.69922068    0.26960066    1.61255371 
H                  -0.97903174    0.36428605    2.42682036 
H                  -1.23900225    0.62698831    0.60950679 
H                  -2.55936524    0.89903077    1.82787369 
H                  -2.02797854   -0.76959552    1.55195751 


