%nprocshared=6 
%mem=6GB 
# M062X/def2TZVPP 

tmpdir/M2_ref_40.gjf 

0 1
H                  -1.21639868    1.63430638   -2.14261544 
C                  -0.14512688    1.67638702   -1.94492662 
H                   0.38933317    1.85730279   -2.87406430 
H                   0.23653963    0.66640383   -1.51092014 
H                   0.04661270    2.49396636   -1.25007974 


