%nprocshared=6 
%mem=6GB 
# M062X/def2TZVPP 

tmpdir/M2_ref_8.gjf 

0 1
B                  -0.17753149   -0.02579991   -0.24407203 
O                   0.31970220    0.44633527   -1.41635304 
H                   0.20988990   -1.05159398    0.14796895 
H                  -0.97643508    0.58149522    0.28373191 
H                   0.00045340    1.29114588   -1.77938213 


