# 6-311+g(d,p) scrf=(smd,solvent=generic,read) geom=connectivity

title card

0 1
 C                 -2.95713330    6.34628385    0.63295290
 C                 -1.79554786    5.71394585    0.97321643
 H                 -4.70376374    5.47501690   -0.23797455
 H                 -3.44213233    3.23510901   -0.20196539
 C                 -3.06434545    4.19412810    0.14624611
 N                 -3.75995411    5.35985098    0.10305494
 N                 -1.86941243    4.37673199    0.66644973
 H                 -0.90892975    6.14074265    1.42665846
 C                  0.07093903    3.24051782   -1.88211603
 N                 -0.25949968    1.86608611   -1.57361701
 H                  0.76638584    3.28567869   -2.72805378
 H                  0.53878912    3.72195182   -1.01114636
 C                  6.94370639    0.58739645    0.39184552
 C                  5.73088542    0.14291576    0.82313629
 H                  7.51833746    1.12463847   -1.59543325
 H                  5.14272523    0.55814392   -2.31026714
 C                  5.53490605    0.48410969   -1.30375240
 N                  6.80245061    0.79782023   -0.96194694
 N                  4.86057643    0.08372553   -0.24331582
 H                  5.41842306   -0.14983350    1.81696575
 Ni                 3.03620943   -0.49489045   -0.18380487
 C                  2.00341943   -3.12198699    1.02013459
 C                 -2.49154762   -2.87463137   -0.98065175
 N                 -1.18208731   -2.20378340   -0.68880097
 C                 -0.94047754   -0.93855427   -1.08162042
 C                 -3.34214329   -3.01051842    0.30629324
 O                  1.81643650   -4.20752981    1.52026736
 O                 -3.28106322   -4.28896344    0.85543243
 S                  3.57141853   -2.28198584    0.92974257
 C                  0.28591506   -0.35762149   -0.81162024
 C                 -4.73195448   -2.62403369   -0.21523296
 O                 -5.36939623   -3.78581739   -0.73513587
 C                  1.29891948   -1.06439394   -0.13951827
 C                 -4.39955563   -1.61194972   -1.28057122
 O                 -3.21420264   -2.16454494   -1.91752135
 C                  0.93735102   -2.33263657    0.34167035
 C                 -0.26387457   -2.90885638    0.02001292
 C                  0.65743355    0.98621446   -1.25790105
 S                  2.34361013    1.30113897   -1.28410247
 H                 -1.21419854    1.69403438   -1.14712116
 H                 -1.74657573   -0.44757583   -1.61884454
 H                 -0.53713841   -3.91999939    0.32397277
 H                 -3.01127070   -2.26703113    1.04415940
 H                 -4.02202521   -4.77710778    0.45195139
 H                 -5.37004162   -2.21855782    0.57553027
 H                 -5.05977724   -3.90821591   -1.64553853
 H                 -5.16575708   -1.52952917   -2.05912268
 H                 -0.95808929    0.05485538    1.94521009
 C                 -1.45536995    1.02771634    1.77626904
 C                 -2.60236851    0.72165181    0.79089586
 C                 -2.01441014    1.52664579    3.10005560
 H                 -2.75738578    0.82631880    3.49480145
 H                 -1.20443517    1.65342534    3.82804117
 H                 -2.50063229    2.50341227    2.96086775
 O                 -3.44737273   -0.10148926    1.18377555
 O                 -2.60585122    1.28135402   -0.35814931
 H                 -2.21653732   -3.86519599   -1.37461570
 O                 -0.45484341    1.87978941    1.27609668
 H                 -0.86763440    2.75487425    1.10759475
 H                  7.87367449    0.76947945    0.91037270
 H                 -0.85062764    3.77360336   -2.12847730
 H                 -3.28391006    7.37356396    0.71688178
 H                 -4.17553842   -0.63314291   -0.83395329

 1 2 2.0 6 1.0 62 1.0
 2 7 1.0 8 1.0
 3 6 1.0
 4 5 1.0
 5 6 1.0 7 2.0
 6
 7
 8
 9 10 1.0 11 1.0 12 1.0 61 1.0
 10 38 1.0 40 1.0
 11
 12
 13 14 2.0 18 1.0 60 1.0
 14 19 1.0 20 1.0
 15 18 1.0
 16 17 1.0
 17 18 1.0 19 2.0
 18
 19
 20
 21 29 1.0 33 1.0
 22 27 2.0 29 1.0 36 1.0
 23 24 1.0 26 1.0 35 1.0 57 1.0
 24 25 2.0 37 1.0
 25 30 1.0 41 1.0
 26 28 1.0 31 1.0 43 1.0
 27
 28 44 1.0
 29
 30 33 2.0 38 1.0
 31 32 1.0 34 1.0 45 1.0
 32 46 1.0
 33 36 1.0
 34 35 1.0 47 1.0 63 1.0
 35
 36 37 2.0
 37 42 1.0
 38 39 2.0
 39
 40
 41
 42
 43
 44
 45
 46
 47
 48 49 1.0
 49 50 1.0 51 1.0 58 1.0
 50 55 1.0 56 2.0
 51 52 1.0 53 1.0 54 1.0
 52
 53
 54
 55
 56
 57
 58 59 1.0
 59
 60
 61
 62
 63

eps=4














