%nprocshared=4 
%mem=4GB 
# b3lyp/6-31g(d) 

tmpdir/M1_conf_0_2.gjf 

0 1
C                   0.68872500   -1.22140500   -0.41107100 
H                   0.36050800   -1.07828100   -1.44350200 
H                   0.98006100   -2.27076300   -0.27629000 
H                  -0.19741437   -0.90990412    0.24616467 
H                   1.50298527   -0.51330695   -0.13236620 


