%nprocshared=4 
%mem=4GB 
# b3lyp/6-31g(d) 

tmpdir/M1_conf_0_3.gjf 

0 1
N                  -0.43866300   -0.82509900    0.42509500 
O                  -1.70376700   -1.08578500   -0.00144800 
H                  -2.01623300   -0.05057700   -0.15094800 
H                  -0.33598300   -1.08622600    1.40603600 
H                   0.35072168   -1.10258810   -0.16037924 


