%nprocshared=4 
%mem=4GB 
# ub3lyp/6-31+g(d) 

tmpdir/M1_conf_0_4.gjf 

0 1
C                  -1.93574325    0.64574045   -0.99345819 
C                  -1.83276906   -0.71815940   -1.12363738 
H                  -2.48025870   -1.31302554   -1.75554645 
H                  -2.66898394    1.24485641   -1.52333872 
H                  -1.26716977    1.12621495   -0.27656464 
H                  -1.22623509   -1.15830032   -0.32390586 


