%nprocshared=4 
%mem=4GB 
# ub3lyp/6-31+g(d) 

tmpdir/M1_conf_0_2.gjf 

0 2
C                  -1.69330545   -0.75911349    1.21022902 
H                  -1.54463998   -1.20737477    2.18919847 
H                  -1.18772724   -1.16960832    0.32050733 
H                  -1.86097410    0.29057457    1.07969345 


