%nprocshared=2 
%mem=2GB 
# ub3lyp/6-31+g(d) 

tmpdir/M2_conf_0_16.gjf 

0 1
C                   0.00000000    0.00000000    0.00000000 
C                   1.38770000    0.00000000    0.00000000 
C                  -0.70474000    0.00000000   -1.21281000 
H                  -0.65096000   -0.01204000    0.88415000 
C                   2.07578000    0.00021000   -1.21568000 
H                   1.93420000   -0.00148000    0.93974000 


