%nprocshared=2 
%mem=2GB 
# ub3lyp/6-31+g(d) 

tmpdir/M2_conf_0_17.gjf 

0 1
C                   0.00000000    0.00000000    0.00000000 
C                   1.50350000    0.00000000    0.00000000 
O                  -0.49274000    0.00000000   -1.13430000 
H                  -0.59469000    0.01029000    0.80774000 
H                   1.85048000    0.87612000   -0.58055000 
H                   1.93127000   -0.05592000    1.00328000 
H                   1.84598000   -0.81777000   -0.66104000 


