%nprocshared=2 
%mem=2GB 
# ub3lyp/6-31+g(d) 

tmpdir/M2_conf_0_35.gjf 

0 1
C                   0.00000000    0.00000000    0.00000000 
C                   1.52480000    0.00000000    0.00000000 
C                   2.02602000    0.00000000    1.43446000 
H                  -0.59939000   -0.61749000   -0.51832000 
O                  -0.48202000    0.91111000    0.68334000 
H                   1.73578000    1.00305000   -0.41732000 
H                   1.93787000   -0.81619000   -0.59693000 
O                   1.57138000    0.85026000    2.11195000 
H                   2.76098000   -0.72168000    1.77379000 


