%nprocshared=2 
%mem=2GB 
# ub3lyp/6-31+g(d) 

tmpdir/M2_conf_0_22.gjf 

0 1
C                   0.00000000    0.00000000    0.00000000 
H                   1.08720000    0.00000000    0.00000000 
H                  -0.50428000    0.00000000   -0.86713000 
O                  -0.62133000    0.00167000    1.06327000 


