%nprocshared=2 
%mem=2GB 
# ub3lyp/6-31+g(d) 

tmpdir/M2_conf_0_50.gjf 

0 3
C                   0.00000000    0.00000000    0.00000000 
C                   1.52900000    0.00000000    0.00000000 
C                   2.10964000    0.00000000    1.37123000 
H                  -0.34422000   -0.73210000    0.74239000 
H                  -0.43635000   -0.15610000   -0.98890000 
H                  -0.19318000    1.01208000    0.40173000 
H                   1.99843000    0.64405000   -0.74535000 
H                   1.35309000    0.30787000    2.11798000 
H                   2.77678000   -0.80801000    1.67290000 


