%nprocshared=2 
%mem=2GB 
# ub3lyp/6-31+g(d) 

tmpdir/M2_conf_0_55.gjf 

0 2
C                   0.00000000    0.00000000    0.00000000 
C                   1.52880000    0.00000000    0.00000000 
H                   2.08550000    0.00000000    0.93758000 
H                  -0.21043000   -1.02477000    0.35206000 
H                  -0.43590000    0.75897000    0.65351000 
H                  -0.33001000    0.07356000   -1.04664000 
H                   1.91122000   -0.64116000   -0.77752000 


