%nprocshared=2 
%mem=2GB 
# ub3lyp/6-31+g(d) 

tmpdir/M2_conf_0_46.gjf 

0 2
C                   0.00000000    0.00000000    0.00000000 
C                   1.52900000    0.00000000    0.00000000 
C                   1.37434000    0.00000000    1.51995000 
H                  -0.37678000    0.93866000    0.37259000 
H                  -0.46943000   -0.93044000    0.32347000 
H                   1.87322000    0.96019000   -0.40639000 
H                   1.96535000   -0.86155000   -0.50992000 
O                   0.79003000    0.92779000    1.95169000 
H                   1.72376000   -0.83541000    2.11818000 


