%nprocshared=2 
%mem=2GB 
# ub3lyp/6-31+g(d) 

tmpdir/M2_conf_0_8.gjf 

0 1
C                   0.00000000    0.00000000    0.00000000 
C                   1.39600000    0.00000000    0.00000000 
C                   2.08212000    0.00000000    1.20633000 
H                  -0.50786000    0.01123000    0.86972000 
H                  -0.53960000   -0.01267000   -0.94249000 
H                   1.94611000   -0.00786000   -0.93761000 
O                   1.46360000    0.02216000    2.27701000 
H                   3.17715000    0.03339000    1.34116000 


