%nprocshared=2 
%mem=2GB 
# ub3lyp/6-31+g(d) 

tmpdir/M2_conf_0_24.gjf 

0 1
C                   0.00000000    0.00000000    0.00000000 
C                   1.38570000    0.00000000    0.00000000 
H                   1.93089000    0.00000000    0.94051000 
O                  -0.62134000   -0.00168000   -1.06928000 
H                  -0.65096000   -0.01049000    0.88417000 
O                   1.99231000   -0.00168000   -1.07174000 


