%nprocshared=2 
%mem=2GB 
# ub3lyp/6-31+g(d) 

tmpdir/M2_conf_0_39.gjf 

0 2
C                   0.00000000    0.00000000    0.00000000 
C                   1.51090000    0.00000000    0.00000000 
H                  -0.34422000    0.00000000   -1.04265000 
H                  -0.43635000    0.80550000    0.59452000 
H                  -0.19318000   -1.00278000    0.42442000 
H                   1.88768000   -0.70911000   -0.71908000 
H                   1.98033000    0.06477000    0.98293000 


