%nprocshared=2 
%mem=2GB 
# ub3lyp/6-31+g(d) 

tmpdir/M2_conf_0_21.gjf 

0 1
C                   0.00000000    0.00000000    0.00000000 
C                   1.39540000    0.00000000    0.00000000 
H                  -0.49410000    0.00000000   -0.87297000 
H                  -0.54847000   -0.00147000    0.93860000 
H                   1.90356000   -0.00698000   -0.86958000 
H                   1.93446000    0.00576000    0.94275000 


