%nprocshared=2 
%mem=2GB 
# ub3lyp/6-31+g(d) 

tmpdir/M2_conf_0_19.gjf 

0 1
C                   0.00000000    0.00000000    0.00000000 
C                   1.40270000    0.00000000    0.00000000 
C                   2.03436000    0.00000000    1.37902000 
H                  -0.50761000   -0.02284000   -0.86662000 
H                  -0.43022000   -0.02501000    1.01620000 
H                   1.90667000   -0.01029000   -0.86725000 
H                   1.65104000   -0.87612000    1.93624000 
H                   3.12464000    0.05592000    1.35013000 
H                   1.57598000    0.81777000    1.96567000 


