%nprocshared=2 
%mem=2GB 
# ub3lyp/6-31+g(d) 

tmpdir/M2_conf_0_0.gjf 

0 1
C                   0.00000000    0.00000000    0.00000000 
C                   1.39510000    0.00000000    0.00000000 
H                  -0.50786000    0.00000000   -0.86979000 
H                  -0.53960000    0.00049000    0.94257000 
H                   1.88811000    0.01130000   -0.87523000 
H                   1.94521000   -0.00425000    0.93763000 


