%nprocshared=2 
%mem=2GB 
# ub3lyp/6-31+g(d) 

tmpdir/M2_conf_0_26.gjf 

0 1
C                   0.00000000    0.00000000    0.00000000 
H                   1.08600000    0.00000000    0.00000000 
H                  -0.50253000    0.00000000   -0.87288000 
O                  -0.61128000   -0.00224000    1.06908000 


