%nprocshared=2 
%mem=2GB 
# ub3lyp/6-31+g(d) 

tmpdir/M2_conf_0_61.gjf 

0 1
C                   0.00000000    0.00000000    0.00000000 
C                   1.33670000    0.00000000    0.00000000 
H                   1.93635000    0.00000000    0.90460000 
H                  -0.45699000   -0.05881000   -0.99874000 
H                  -0.60911000    0.03085000    0.89676000 
H                   1.79531000   -0.07388000   -1.00361000 


