%nprocshared=2 
%mem=2GB 
# ub3lyp/6-31+g(d) 

tmpdir/M2_conf_0_44.gjf 

0 1
C                   0.00000000    0.00000000    0.00000000 
C                   1.51680000    0.00000000    0.00000000 
C                   2.10048000    0.00000000    1.41191000 
O                  -0.49274000   -0.88214000    0.71307000 
H                  -0.59469000    0.62170000   -0.51578000 
H                   1.86378000   -1.00225000   -0.31639000 
H                   1.94457000    0.81540000   -0.58722000 
O                   1.69370000   -0.85874000    2.10886000 
H                   2.87625000    0.70343000    1.69694000 


