%nprocshared=2 
%mem=2GB 
# ub3lyp/6-31+g(d) 

tmpdir/M2_conf_0_60.gjf 

0 1
C                   0.00000000    0.00000000    0.00000000 
C                   1.52780000    0.00000000    0.00000000 
H                   2.06124000    0.00000000    0.94516000 
H                  -0.34003000   -0.78984000   -0.68274000 
H                  -0.19334000    0.97916000   -0.47841000 
H                  -0.42584000   -0.08800000    1.00180000 
O                   2.01647000    0.07573000   -1.06962000 


