%nprocshared=2 
%mem=2GB 
# ub3lyp/6-31+g(d) 

tmpdir/M2_conf_0_15.gjf 

0 1
C                   0.00000000    0.00000000    0.00000000 
C                   1.40270000    0.00000000    0.00000000 
C                   2.01266000    0.00000000    1.39748000 
H                  -0.50397000    0.03163000   -0.86673000 
H                  -0.43747000   -0.02478000    1.00678000 
H                   1.91031000    0.04416000   -0.86580000 
H                   1.59111000    0.93569000    1.81168000 
H                   3.10459000   -0.01218000    1.37159000 
H                   1.57297000   -0.83704000    1.95945000 


