%nprocshared=2 
%mem=2GB 
# ub3lyp/6-31+g(d) 

tmpdir/M2_conf_0_29.gjf 

0 1
C                   0.00000000    0.00000000    0.00000000 
C                   1.39690000    0.00000000    0.00000000 
H                   1.93661000    0.00000000    0.94239000 
H                  -0.49410000    0.00533000   -0.87295000 
H                  -0.54847000   -0.00721000    0.93857000 
H                   1.90506000   -0.00182000   -0.86961000 


