%nprocshared=2 
%mem=2GB 
# ub3lyp/6-31+g(d) 

tmpdir/M2_conf_0_4.gjf 

0 1
C                   0.00000000    0.00000000    0.00000000 
C                   1.39600000    0.00000000    0.00000000 
H                   1.93626000    0.00000000    0.94220000 
H                  -0.49301000   -0.01176000   -0.87523000 
H                  -0.55011000    0.00475000    0.93763000 
H                   1.90386000   -0.00046000   -0.86979000 


