%nprocshared=2 
%mem=2GB 
# ub3lyp/6-31+g(d) 

tmpdir/M2_conf_0_25.gjf 

0 1
C                   0.00000000    0.00000000    0.00000000 
C                   1.39690000    0.00000000    0.00000000 
H                   1.94472000    0.00000000    0.93898000 
H                  -0.50816000    0.00835000   -0.86957000 
H                  -0.53906000   -0.00724000    0.94274000 
H                   1.89100000    0.00137000   -0.87297000 


