%nprocshared=2 
%mem=2GB 
# ub3lyp/6-31+g(d) 

tmpdir/M2_conf_0_57.gjf 

0 1
C                   0.00000000    0.00000000    0.00000000 
C                   1.37400000    0.00000000    0.00000000 
H                  -0.45861000    0.00000000   -1.00633000 
H                  -0.61191000    0.06580000    0.89393000 
H                   1.83099000   -0.01449000   -1.00036000 
H                   1.98311000    0.03507000    0.89660000 


