%nprocshared=2 
%mem=2GB 
# ub3lyp/6-31+g(d) 

tmpdir/M2_conf_0_47.gjf 

0 1
H                   0.00000000    0.00000000    0.00000000 
C                   1.09210000    0.00000000    0.00000000 
C                   1.71911000    0.00000000    1.39321000 
H                   1.52218000   -0.84651000   -0.55141000 
H                   1.53432000    0.93361000   -0.39726000 
O                   2.89736000   -0.01797000    1.39882000 
H                   1.10421000    0.08136000    2.28380000 


