%nprocshared=2 
%mem=2GB 
# ub3lyp/6-31+g(d) 

tmpdir/M2_conf_0_10.gjf 

0 1
C                   0.00000000    0.00000000    0.00000000 
C                   1.38780000    0.00000000    0.00000000 
H                   1.93184000    0.00000000    0.94117000 
O                  -0.62488000    0.01341000   -1.06713000 
H                  -0.65858000    0.04080000    0.88487000 
O                   1.99177000   -0.00898000   -1.07227000 


