%nprocshared=2 
%mem=2GB 
# ub3lyp/6-31+g(d) 

tmpdir/M2_conf_0_13.gjf 

0 1
C                   0.00000000    0.00000000    0.00000000 
C                   1.38780000    0.00000000    0.00000000 
C                   2.09233000    0.00000000    1.21293000 
O                  -0.60397000   -0.02227000    1.07208000 
H                  -0.54700000    0.01181000   -0.93938000 
H                   2.04638000    0.05176000   -0.88429000 
H                   1.59556000   -0.01256000    2.08430000 
H                   3.18259000    0.02654000    1.08558000 


