%nprocshared=2 
%mem=2GB 
# ub3lyp/6-31+g(d) 

tmpdir/M2_conf_0_42.gjf 

0 2
C                   0.00000000    0.00000000    0.00000000 
C                   1.51680000    0.00000000    0.00000000 
C                   2.11496000    0.00000000    1.40714000 
O                  -0.49274000    0.94555000    0.62656000 
H                  -0.59469000   -0.67901000   -0.43759000 
H                   1.94457000   -0.80544000   -0.60080000 
H                   1.85928000    1.00276000   -0.31655000 
H                   1.60060000    0.70911000    2.03521000 
H                   3.20321000   -0.06477000    1.45462000 


