%nprocshared=2 
%mem=2GB 
# ub3lyp/6-31+g(d) 

tmpdir/M2_conf_0_37.gjf 

0 2
C                   0.00000000    0.00000000    0.00000000 
C                   1.52880000    0.00000000    0.00000000 
C                   1.81066000    0.00000000    1.49313000 
H                  -0.38242000   -0.69409000    0.73066000 
H                  -0.47732000    0.06873000   -0.97797000 
H                   1.73923000   -0.99757000   -0.42303000 
H                   1.96470000    0.80292000   -0.59869000 
O                   1.30778000   -0.88537000    2.08632000 
H                   2.41040000    0.77802000    1.95263000 


