%nprocshared=2 
%mem=2GB 
# ub3lyp/6-31+g(d) 

tmpdir/M2_conf_0_3.gjf 

0 1
C                   0.00000000    0.00000000    0.00000000 
C                   1.39600000    0.00000000    0.00000000 
C                   2.09632000    0.00000000    1.20231000 
H                  -0.49301000    0.01130000    0.87523000 
H                  -0.55011000   -0.00425000   -0.93763000 
H                   1.93560000    0.00049000   -0.94257000 
O                   1.49028000   -0.00167000    2.27436000 
H                   3.18231000   -0.00033000    1.19681000 


