%nprocshared=2 
%mem=2GB 
# ub3lyp/6-31+g(d) 

tmpdir/M2_conf_0_54.gjf 

0 3
C                   0.00000000    0.00000000    0.00000000 
C                   1.52880000    0.00000000    0.00000000 
C                   2.03273000    0.00000000    1.40124000 
H                  -0.21043000    1.01461000    0.38036000 
H                  -0.43590000   -0.16978000   -0.98706000 
H                  -0.33001000   -0.72264000    0.76070000 
H                   2.00612000    0.62373000   -0.75638000 
H                   1.23205000    0.30854000    2.10033000 
H                   2.66241000   -0.82320000    1.74264000 


