%nprocshared=2 
%mem=2GB 
# ub3lyp/6-31+g(d) 

tmpdir/M2_ref_7.gjf 

0 1
C                   1.56913860   -1.37271489   -0.06897614 
H                   1.58781592   -2.45944017   -0.09245997 
O                   2.61978210   -0.73183501   -0.05703807 
H                   0.69243419   -0.88219569   -0.06412961 


