%nprocshared=2 
%mem=2GB 
# ub3lyp/6-31+g(d) 

tmpdir/M2_ref_1.gjf 

0 1
C                   2.76086323   -0.64577722   -0.05543502 
C                   2.73397309    0.74492017   -0.01998226 
C                   1.56913860   -1.37271489   -0.06897614 
H                   3.71236256   -1.16918432   -0.07323601 
C                   1.51456879    1.42595753    0.00431597 
H                   3.66448683    1.30480451   -0.00921086 


