%nprocshared=2 
%mem=2GB 
# ub3lyp/6-31+g(d) 

tmpdir/M2_ref_20.gjf 

0 1
C                   1.51456879    1.42595753    0.00431597 
C                   0.33039499    0.70663737   -0.01689504 
C                  -1.07240839    1.28243937    0.02074375 
O                   2.58961513    0.82554410   -0.01710574 
H                   1.49361496    2.51222136    0.04104510 
O                   0.35475864   -0.52915274   -0.05690802 
H                  -1.60205949    0.84922693    0.89070546 
H                  -1.08734547    2.37420030    0.00010213 
H                  -1.65168046    0.82749647   -0.80422442 


