%nprocshared=2 
%mem=2GB 
# ub3lyp/6-31+g(d) 

tmpdir/M2_ref_23.gjf 

0 1
C                   0.33039499    0.70663737   -0.01689504 
C                   1.51456879    1.42595753    0.00431597 
C                   2.73397309    0.74492017   -0.01998226 
O                   0.35475864   -0.52915274   -0.05690802 
H                  -0.68507474    1.12345238    0.01035115 
H                   1.49361496    2.51222136    0.04104510 
H                   2.75343849   -0.26178620   -0.04564602 
H                   3.66448683    1.30480451   -0.00921086 


