%nprocshared=2 
%mem=2GB 
# ub3lyp/6-31+g(d) 

tmpdir/M2_ref_2.gjf 

0 1
C                   2.76086323   -0.64577722   -0.05543502 
H                   3.71236256   -1.16918432   -0.07323601 
O                   1.71021973   -1.28665710   -0.06737309 
H                   2.74139783    0.36092915   -0.02977126 


