%nprocshared=2 
%mem=2GB 
# ub3lyp/6-31+g(d) 

tmpdir/M2_ref_58.gjf 

0 1
C                  -1.87263393    0.65396624   -1.11889449 
H                  -2.45157130    1.26792245   -1.80134370 
H                  -1.29336186    1.10890914   -0.29392632 
O                  -1.86003805   -0.52432998   -1.13297020 


