%nprocshared=2 
%mem=2GB 
# ub3lyp/6-31+g(d) 

tmpdir/M2_ref_10.gjf 

0 1
C                   0.35803021   -0.69509548   -0.06228099 
C                   1.56913860   -1.37271489   -0.06897614 
H                   1.58781592   -2.45944017   -0.09245997 
O                   0.33366656    0.54069463   -0.02226801 
H                  -0.64898759   -1.14630964   -0.03800929 
O                   2.61978210   -0.73183501   -0.05703807 


