%nprocshared=2 
%mem=2GB 
# ub3lyp/6-31+g(d) 

tmpdir/M2_ref_61.gjf 

0 1
C                  -1.85834667   -0.68255240   -1.13486030 
C                  -1.87263393    0.65396624   -1.11889449 
H                  -2.45157130    1.26792245   -1.80134370 
H                  -1.26096028   -1.14284632   -0.33416345 
H                  -2.40082691   -1.28897047   -1.85186107 
H                  -1.29336186    1.10890914   -0.29392632 


