%nprocshared=2 
%mem=2GB 
# ub3lyp/6-31+g(d) 

tmpdir/M2_ref_6.gjf 

0 1
C                   1.56913860   -1.37271489   -0.06897614 
C                   0.35803021   -0.69509548   -0.06228099 
C                   2.76086323   -0.64577722   -0.05543502 
H                   1.58781592   -2.45944017   -0.09245997 
C                   0.33039499    0.70663737   -0.01689504 
H                  -0.64898759   -1.14630964   -0.03800929 


