%nprocshared=2 
%mem=2GB 
# ub3lyp/6-31+g(d) 

tmpdir/M2_ref_44.gjf 

0 1
C                   0.33039499    0.70663737   -0.01689504 
C                  -1.07240839    1.28243937    0.02074375 
C                  -1.87263393    0.65396624   -1.11889449 
O                   0.35475864   -0.52915274   -0.05690802 
H                   1.18760183    1.22734316   -0.00154069 
H                  -1.60205949    0.84922693    0.89070546 
H                  -1.08734547    2.37420030    0.00010213 
O                  -1.86003805   -0.52432998   -1.13297020 
H                  -2.45157130    1.26792245   -1.80134370 


