%nprocshared=2 
%mem=2GB 
# ub3lyp/6-31+g(d) 

tmpdir/M2_ref_52.gjf 

0 3
C                  -1.56036485   -0.78282937    1.30257086 
C                  -1.80408589    0.68398541    1.22253756 
H                  -2.80967507    1.06898249    1.39913883 
H                  -1.17868332   -1.17053419    0.33884542 
H                  -1.10668637   -1.20451272    2.20001314 
H                  -1.27443479    1.11719785    0.35257585 


