%nprocshared=2 
%mem=2GB 
# ub3lyp/6-31+g(d) 

tmpdir/M2_ref_35.gjf 

0 1
C                   0.35803021   -0.69509548   -0.06228099 
C                  -1.03309740   -1.31841760   -0.02875126 
C                  -1.85834667   -0.68255240   -1.13486030 
H                   1.23473462   -1.18561468   -0.06712752 
O                   0.33366656    0.54069463   -0.02226801 
H                  -1.41477893   -0.93071278    0.93497418 
H                  -0.99835638   -2.40914399   -0.07674181 
O                  -1.87094255    0.49574382   -1.12078459 
H                  -2.40082691   -1.28897047   -1.85186107 


