%nprocshared=4 
%mem=4GB 
# ub3lyp/6-31+g(d) 

tmpdir/M3_conf_0_3.gjf 

0 1
C                   0.00000000    0.00000000    0.00000000 
H                   1.09230000    0.00000000    0.00000000 
H                  -0.41742000    0.00000000   -1.02183000 
H                  -0.44165000    0.92903000    0.40820000 
H                  -0.44351000   -0.84452000    0.54760000 


