%nprocshared=4 
%mem=4GB 
# ub3lyp/6-31+g(d) 

tmpdir/M3_conf_0_34.gjf 

0 1
C                   0.00000000    0.00000000    0.00000000 
H                   1.08280000    0.00000000    0.00000000 
H                  -0.57076000    0.00000000   -0.94022000 
O                  -0.66185000    0.02552000    0.97464000 


