%nprocshared=4 
%mem=4GB 
# ub3lyp/6-31+g(d) 

tmpdir/M3_conf_0_16.gjf 

0 1
C                   0.00000000    0.00000000    0.00000000 
C                   1.51680000    0.00000000    0.00000000 
C                   2.10048000    0.00000000    1.41191000 
C                  -0.55888000   -1.00055000    0.80878000 
C                  -0.82152000    0.85883000   -0.71251000 
C                  -1.93633000   -1.14962000    0.88870000 
C                  -2.20836000    0.72023000   -0.61875000 
H                  -0.38879000    1.63342000   -1.34064000 
C                  -2.76188000   -0.27852000    0.17631000 
H                  -2.36675000   -1.93328000    1.50708000 
H                  -2.85607000    1.39473000   -1.17093000 
H                  -3.84096000   -0.38148000    0.24408000 
H                   1.86378000   -1.00225000   -0.31639000 
H                   1.94457000    0.81540000   -0.58722000 
O                   1.69370000   -0.85874000    2.10886000 
H                   2.87625000    0.70343000    1.69694000 
H                   0.20176000   -1.63803000    1.29192000 


