%nprocshared=4 
%mem=4GB 
# ub3lyp/6-31+g(d) 

tmpdir/M3_conf_0_20.gjf 

0 3
C                   0.00000000    0.00000000    0.00000000 
C                   1.47950000    0.00000000    0.00000000 
H                  -0.38689000    0.00000000   -1.03698000 
H                  -0.53435000   -0.64411000    0.70022000 
H                   1.87214000   -0.30787000   -0.98785000 
H                   2.01743000    0.80801000    0.49670000 


