%nprocshared=4 
%mem=4GB 
# ub3lyp/6-31+g(d) 

tmpdir/M3_conf_0_14.gjf 

0 2
C                   0.00000000    0.00000000    0.00000000 
C                   1.51680000    0.00000000    0.00000000 
C                   2.11496000    0.00000000    1.40714000 
C                  -0.55888000    1.07247000    0.71066000 
C                  -0.82152000   -0.93800000   -0.60450000 
C                  -1.93633000    1.19356000    0.82875000 
C                  -2.20836000   -0.80686000   -0.50055000 
H                  -0.38879000   -1.77017000   -1.15407000 
C                  -2.76188000    0.25198000    0.21252000 
H                  -2.36675000    2.01916000    1.38991000 
H                  -2.85607000   -1.53648000   -0.97753000 
H                  -3.84096000    0.34759000    0.29031000 
H                   1.94457000   -0.80544000   -0.60080000 
H                   1.85928000    1.00276000   -0.31655000 
H                   1.60060000    0.70911000    2.03521000 
H                   3.20321000   -0.06477000    1.45462000 
H                   0.20176000    1.72510000    1.17312000 


