%nprocshared=4 
%mem=4GB 
# ub3lyp/6-31+g(d) 

tmpdir/M3_conf_0_21.gjf 

0 2
C                   0.00000000    0.00000000    0.00000000 
H                   1.08410000    0.00000000    0.00000000 
H                  -0.47614000    0.00000000   -0.99915000 
H                  -0.52783000    0.66036000    0.66871000 


