%nprocshared=4 
%mem=4GB 
# ub3lyp/6-31+g(d) 

tmpdir/M3_conf_0_23.gjf 

0 2
C                   0.00000000    0.00000000    0.00000000 
C                   1.52900000    0.00000000    0.00000000 
H                   2.07691000    0.00000000    0.94367000 
H                  -0.34422000    0.06856000   -1.04039000 
H                  -0.43635000    0.76467000    0.64619000 
H                  -0.19318000   -1.02852000    0.35756000 
H                   1.90578000   -0.66029000   -0.76415000 


