%nprocshared=4 
%mem=4GB 
# ub3lyp/6-31+g(d) 

tmpdir/M3_conf_0_28.gjf 

0 3
C                   0.00000000    0.00000000    0.00000000 
C                   1.48910000    0.00000000    0.00000000 
H                   2.07288000    0.00000000    0.92096000 
H                  -0.38689000    0.88341000   -0.54305000 
H                  -0.53435000   -0.93384000   -0.18203000 
H                   1.88174000    0.68046000   -0.77948000 


