%nprocshared=4 
%mem=4GB 
# ub3lyp/6-31+g(d) 

tmpdir/M3_conf_0_6.gjf 

0 1
C                   0.00000000    0.00000000    0.00000000 
C                   1.52480000    0.00000000    0.00000000 
H                   1.93699000    0.00000000    1.01154000 
C                  -0.82802000   -0.07439000    1.11123000 
C                  -0.54673000    0.01556000   -1.29167000 
C                  -2.21220000   -0.10842000    0.93314000 
H                  -0.40127000   -0.09794000    2.11078000 
C                  -1.92070000   -0.02603000   -1.46665000 
C                  -2.75562000   -0.08359000   -0.34751000 
H                  -2.86665000   -0.15397000    1.79872000 
H                  -2.34472000   -0.01547000   -2.46759000 
H                  -3.83323000   -0.11062000   -0.47948000 
H                   1.73578000   -0.92898000   -0.56327000 
H                   1.86396000    0.84454000   -0.61766000 
H                   0.20992000    0.04991000   -2.08660000 


