%nprocshared=4 
%mem=4GB 
# ub3lyp/6-31+g(d) 

tmpdir/M3_conf_0_15.gjf 

0 1
C                   0.00000000    0.00000000    0.00000000 
C                   1.51680000    0.00000000    0.00000000 
H                   1.96917000    0.00000000    0.99401000 
C                  -0.55888000   -0.07159000   -1.28456000 
C                  -0.82152000    0.07629000    1.11330000 
C                  -1.93633000   -0.04933000   -1.45223000 
C                  -2.20836000    0.08120000    0.94603000 
H                  -0.38879000    0.13333000    2.10893000 
C                  -2.76188000    0.01969000   -0.32905000 
H                  -2.36675000   -0.09316000   -2.44953000 
H                  -2.85607000    0.13511000    1.81607000 
H                  -3.84096000    0.02487000   -0.45220000 
H                   1.86378000    0.84245000   -0.62840000 
H                   1.85928000   -0.85329000   -0.61451000 
H                   0.20176000   -0.09111000   -2.08420000 


