%nprocshared=4 
%mem=4GB 
# ub3lyp/6-31+g(d) 

tmpdir/M3_conf_0_17.gjf 

0 2
C                   0.00000000    0.00000000    0.00000000 
C                   1.52900000    0.00000000    0.00000000 
H                   1.98985000    0.00000000    0.99010000 
H                  -0.37678000   -0.15746000   -0.99755000 
H                  -0.46943000    0.75239000    0.63582000 
H                   1.87322000   -0.83890000   -0.61917000 
H                   1.72218000    0.93707000   -0.55462000 


