%nprocshared=4 
%mem=4GB 
# ub3lyp/6-31+g(d) 

tmpdir/M3_conf_0_35.gjf 

0 1
C                   0.00000000    0.00000000    0.00000000 
C                   1.51950000    0.00000000    0.00000000 
C                   2.01547000    0.00000000    1.24128000 
H                  -0.34036000   -0.83292000    0.63935000 
H                  -0.33205000    0.87202000    0.59507000 
H                  -0.44044000   -0.03924000   -0.99879000 
H                   2.08227000    0.02200000   -0.92679000 
H                   1.25125000    0.01458000    2.04050000 
H                   3.07344000    0.05269000    1.47750000 


