%nprocshared=4 
%mem=4GB 
# ub3lyp/6-31+g(d) 

tmpdir/M3_conf_0_25.gjf 

0 2
C                   0.00000000    0.00000000    0.00000000 
H                   1.08690000    0.00000000    0.00000000 
H                  -0.48445000    0.00000000   -0.99503000 
H                  -0.53177000    0.64123000    0.68404000 


