%nprocshared=4 
%mem=4GB 
# ub3lyp/6-31+g(d) 

tmpdir/M3_conf_0_37.gjf 

0 1
C                   0.00000000    0.00000000    0.00000000 
C                   1.33670000    0.00000000    0.00000000 
H                   1.93953000    0.00000000    0.90152000 
H                  -0.45861000    0.03933000   -1.00556000 
H                  -0.61191000    0.03081000    0.89582000 
H                   1.79369000    0.02462000   -1.00017000 


