%nprocshared=4 
%mem=4GB 
# ub3lyp/6-31+g(d) 

tmpdir/M3_conf_0_0.gjf 

0 1
C                   0.00000000    0.00000000    0.00000000 
C                   1.52000000    0.00000000    0.00000000 
C                  -0.82802000    0.00000000   -1.11372000 
C                  -0.54673000    0.07076000    1.28983000 
C                  -2.21220000    0.04584000   -0.93830000 
H                  -0.40127000   -0.04327000   -2.11261000 
C                  -1.92070000    0.12394000    1.46164000 
C                  -2.75562000    0.10661000    0.34115000 
H                  -2.86665000    0.03347000   -1.80499000 
H                  -2.34472000    0.18026000    2.46105000 
H                  -3.83323000    0.14240000    0.47102000 
H                   1.73098000    0.96453000    0.49996000 
H                   1.93307000   -0.06754000   -1.00893000 
H                   1.85916000   -0.80140000    0.67269000 
H                   0.20992000    0.08958000    2.08528000 


