%nprocshared=4 
%mem=4GB 
# ub3lyp/6-31+g(d) 

tmpdir/M3_conf_0_7.gjf 

0 1
C                   0.00000000    0.00000000    0.00000000 
C                   1.52480000    0.00000000    0.00000000 
C                   2.02602000    0.00000000    1.43446000 
C                  -0.82802000   -0.85303000   -0.71603000 
C                  -0.54673000    1.03341000    0.77506000 
C                  -2.21220000   -0.68920000   -0.63837000 
H                  -0.40127000   -1.64594000   -1.32510000 
C                  -1.92070000    1.19920000    0.84478000 
C                  -2.75562000    0.32984000    0.13768000 
H                  -2.86665000   -1.36098000   -1.18610000 
H                  -2.34472000    2.00089000    1.44419000 
H                  -3.83323000    0.45232000    0.19377000 
H                   1.73578000    1.00305000   -0.41732000 
H                   1.93787000   -0.81619000   -0.59693000 
O                   1.57138000    0.85026000    2.11195000 
H                   2.76098000   -0.72168000    1.77379000 
H                   0.20992000    1.65477000    1.27206000 


