%nprocshared=4 
%mem=4GB 
# ub3lyp/6-31+g(d) 

tmpdir/M3_frag_conf_0_0.gjf 

0 1
C                   2.79351806   -0.65088616   -0.02677095 
C                   1.59975240   -1.37268551   -0.03811757 
C                   0.38785976   -0.69510738   -0.03325655 
C                   0.36490352    0.70586927   -0.00814656 
C                   1.55316416    1.42252079    0.00313709 
C                   2.77056870    0.74056425   -0.00687389 
H                   3.74342350   -1.17753341   -0.03351796 
H                   1.61527052   -2.45973624   -0.05335152 
H                   1.53425137    2.50944822    0.02056343 
H                   3.70207042    1.29882349    0.00165434 
H                  -0.61308839   -1.15193534   -0.02283644 
H                  -0.63192899    1.14281736   -0.00450630 


