%nprocshared=4 
%mem=4GB 
# ub3lyp/6-31+g(d) 

tmpdir/M3_ref_35.gjf 

0 1
C                  -1.03309740   -1.31841760   -0.02875126 
C                  -1.85834667   -0.68255240   -1.13486030 
C                  -1.87263393    0.65396624   -1.11889449 
H                  -0.02607960   -0.86720344   -0.05302296 
H                  -1.41477893   -0.93071278    0.93497418 
H                  -0.99835638   -2.40914399   -0.07674181 
H                  -2.40082691   -1.28897047   -1.85186107 
H                  -1.29336186    1.10890914   -0.29392632 
H                  -2.45157130    1.26792245   -1.80134370 


