%nprocshared=4 
%mem=4GB 
# ub3lyp/6-31+g(d) 

tmpdir/M3_ref_15.gjf 

0 1
C                   0.33039499    0.70663737   -0.01689504 
C                  -1.07240839    1.28243937    0.02074375 
H                  -1.08734547    2.37420030    0.00010213 
C                   0.35803021   -0.69509548   -0.06228099 
C                   1.51456879    1.42595753    0.00431597 
C                   1.56913860   -1.37271489   -0.06897614 
C                   2.73397309    0.74492017   -0.01998226 
H                   1.49361496    2.51222136    0.04104510 
C                   2.76086323   -0.64577722   -0.05543502 
H                   1.58781592   -2.45944017   -0.09245997 
H                   3.66448683    1.30480451   -0.00921086 
H                   3.71236256   -1.16918432   -0.07323601 
H                  -1.60205949    0.84922693    0.89070546 
H                  -1.65168046    0.82749647   -0.80422442 
H                  -0.64898759   -1.14630964   -0.03800929 


