%nprocshared=4 
%mem=4GB 
# ub3lyp/6-31+g(d) 

tmpdir/M3_ref_25.gjf 

0 2
C                  -1.56036485   -0.78282937    1.30257086 
H                  -1.10668637   -1.20451272    2.20001314 
H                  -1.17868332   -1.17053419    0.33884542 
H                  -1.73679110    0.27897731    1.24463587 


