%nprocshared=4 
%mem=4GB 
# ub3lyp/6-31+g(d) 

tmpdir/M3_ref_26.gjf 

0 3
C                  -1.03309740   -1.31841760   -0.02875126 
C                  -1.56036485   -0.78282937    1.30257086 
C                  -1.80408589    0.68398541    1.22253756 
H                  -0.02607960   -0.86720344   -0.05302296 
H                  -0.99835638   -2.40914399   -0.07674181 
H                  -1.63048379   -0.85812368   -0.82944811 
H                  -1.10668637   -1.20451272    2.20001314 
H                  -1.27443479    1.11719785    0.35257585 
H                  -2.80967507    1.06898249    1.39913883 


