%nprocshared=4 
%mem=4GB 
# ub3lyp/6-31+g(d) 

tmpdir/M3_ref_9.gjf 

0 2
C                  -1.56036485   -0.78282937    1.30257086 
C                  -1.03309740   -1.31841760   -0.02875126 
C                  -1.85834667   -0.68255240   -1.13486030 
H                  -1.73679110    0.27897731    1.24463587 
H                  -1.10668637   -1.20451272    2.20001314 
H                  -0.02607960   -0.86720344   -0.05302296 
H                  -0.99835638   -2.40914399   -0.07674181 
O                  -1.87094255    0.49574382   -1.12078459 
H                  -2.40082691   -1.28897047   -1.85186107 


