%chk=D:\Zeyin\Research\VIZ\Sys_20230922\Liangr\conf_D2.chk
# hf/3-21g geom=connectivity

Conf_0 frag_64

0 1
 O              
 C                  1            B1
 C                  2            B2    1            A1
 C                  3            B3    2            A2    1            D1    0
 H                  2            B4    1            A3    3            D2    0
 H                  4            B5    3            A4    2            D3    0
 H                  4            B6    3            A5    2            D4    0
 H                  4            B7    3            A6    2            D5    0

   B1             1.25200000
   B2             1.44557601
   B3             1.36163909
   B4             1.08462159
   B5             0.95741370
   B6             1.09052740
   B7             1.05337695
   A1           122.51375069
   A2           119.67967928
   A3           118.16771124
   A4            52.57170636
   A5           119.83033071
   A6           122.53334283
   D1           119.85531816
   D2           178.92133663
   D3           106.47723121
   D4            -6.26796471
   D5           178.62711887

 1 2 1.0
 2 3 1.0 5 1.0
 3 4 1.0 6 1.0
 4 6 1.0 7 1.0 8 1.0
 5
 6
 7
 8

