%chk=D:\Zeyin\Research\VIZ\Sys_20230922\Liangr\ref_D2.chk
# hf/3-21g geom=connectivity

frag_64

0 1
 O              
 C                  1            B1
 C                  2            B2    1            A1
 C                  3            B3    2            A2    1            D1    0
 H                  2            B4    1            A3    3            D2    0
 H                  3            B5    2            A4    1            D3    0
 H                  4            B6    3            A5    2            D4    0
 H                  4            B7    3            A6    2            D5    0

   B1             1.25174318
   B2             1.44576001
   B3             1.36139487
   B4             1.08441828
   B5             1.08914921
   B6             1.08959167
   B7             1.05298718
   A1           122.51896014
   A2           119.67772826
   A3           118.16640062
   A4           121.78312965
   A5           119.82886831
   A6           122.53508340
   D1            -2.54398419
   D2           179.00053461
   D3           171.83749337
   D4            -6.25301408
   D5           178.60804991

 1 2 1.0
 2 3 1.0 5 1.0
 3 4 1.0 6 1.0
 4 7 1.0 8 1.0
 5
 6
 7
 8

