%nprocshared=4 
%mem=4GB 
# 6-31g(d)  wb97x

tmpdir/M1_conf_0_2.gjf 

0 1
C                   6.93300000   28.60400000   37.83200000 
H                   5.98447300   28.07404900   37.67349200 
H                   7.26042900   28.30283500   38.84443000 
H                   6.68253544   29.68331403   37.88194813 
H                   7.66702040   28.32385612   37.09146462 


