%nprocshared=4 
%mem=4GB 
# 6-31g(d)  wb97x

tmpdir/M1_conf_1_4.gjf 

1 1
N                   8.25534876   26.84752737   36.79465301 
H                   8.77725606   26.70447395   37.66135329 
H                   7.41901781   26.22235082   36.82219397 
H                   8.83356833   26.51927429   35.99420647 
H                   7.95120349   27.86824248   36.67732652 


