%nprocshared=4 
%mem=4GB 
# 6-31g(d)  wb97x

tmpdir/M1_conf_2_13.gjf 

0 1
C                   8.54444366   34.28585258   35.21365556 
H                   7.66856461   34.78615312   34.78976097 
H                   9.37298549   35.00168393   35.19659273 
H                   8.33002343   34.04355654   36.25933349 
H                   8.79418918   33.37647469   34.62889447 


