%nprocshared=4 
%mem=4GB 
# 6-31g(d)  wb97x

tmpdir/M1_conf_2_15.gjf 

0 1
C                  12.39183353   31.86100702   35.71460060 
H                  13.35542316   32.37103570   35.83603415 
H                  12.52186466   31.05989599   34.97647088 
H                  12.12014760   31.39573325   36.66455593 
H                  11.59972826   32.56499249   35.38811281 


