%nprocshared=4 
%mem=4GB 
# 6-31g(d)  wb97x

tmpdir/M1_conf_1_12.gjf 

0 1
C                   8.88426802   33.02501498   34.40369837 
H                   7.95944331   32.44962648   34.28945638 
H                   9.20330870   33.28095671   33.38566012 
H                   9.67005895   32.37680024   34.85649438 
H                   8.65394503   33.94740373   34.97398455 


