%nprocshared=4 
%mem=4GB 
# 6-31g(d)  wb97x

tmpdir/M1_conf_2_6.gjf 

0 1
N                   9.94278087   28.81646777   35.47823896 
H                   9.58740548   28.89401456   34.52179532 
H                   9.32337796   29.10122565   36.22270150 
H                  10.80909326   28.46103941   35.61014186 


