%nprocshared=4 
%mem=4GB 
# 6-31g(d)  wb97x

tmpdir/M1_conf_2_3.gjf 

0 1
C                   7.85137108   28.27853279   36.66016597 
H                   7.33543218   28.24744017   35.69423668 
H                   7.15435956   28.56089217   37.47148978 
H                   8.19887628   27.17917491   36.85425103 
H                   8.72494754   28.96233154   36.57424347 


