%nprocshared=4 
%mem=4GB 
# 6-31g(d)  wb97x

tmpdir/M1_conf_0_1.gjf 

0 1
C                   6.58700000   30.09500000   37.90100000 
C                   7.38800000   31.15900000   37.14900000 
H                   7.02189500   32.17727500   37.19936300 
H                   5.66404535   30.42292036   38.31506279 
H                   6.83746456   29.01568597   37.85105187 
H                   8.30082025   30.84338570   36.61621990 


