%nprocshared=4 
%mem=4GB 
# 6-31g(d)  wb97x

tmpdir/M1_conf_1_2.gjf 

0 1
C                   6.88752143   28.68075282   37.76517522 
H                   5.91527198   28.17907184   37.70175318 
H                   7.31222534   28.41374626   38.73871584 
H                   6.68931182   29.76666741   37.76806313 
H                   7.56323381   28.40896648   36.94133052 


