%nprocshared=4 
%mem=4GB 
# 6-31g(d)  wb97x

tmpdir/M1_conf_0_8.gjf 

0 1
C                  12.01500000   27.91000000   34.45100000 
H                  12.62096900   27.03350900   34.68686100 
H                  12.70115300   28.73391600   34.22569200 
H                  11.40991100   27.71444400   33.56083800 
H                  11.43227177   28.17783782   35.32255874 


