%nprocshared=4 
%mem=4GB 
# 6-31g(d)  wb97x

tmpdir/M1_conf_1_8.gjf 

0 1
C                  11.94800859   27.96307738   34.38633177 
H                  12.42321011   26.98867671   34.48807087 
H                  12.71284472   28.71986237   34.20542818 
H                  11.28343700   27.93964197   33.50979764 
H                  11.39878292   28.20349603   35.30491188 


