%nprocshared=4 
%mem=4GB 
# 6-31g(d)  wb97x

tmpdir/M1_conf_2_5.gjf 

0 1
C                   9.05815842   29.22315494   36.54146980 
H                   9.62199884   29.21995954   37.47798455 
H                   8.18458196   28.53935619   36.62739230 
H                   9.75348140   28.90349435   35.70575866 
H                   8.67199463   30.24091229   36.32812384 


