%nprocshared=4 
%mem=4GB 
# 6-31g(d)  wb97x

tmpdir/M1_conf_1_7.gjf 

0 1
C                  11.18929013   28.29519964   35.65528864 
O                  11.67587012   28.15549772   36.76808279 
H                  10.20732741   28.70505045   35.50771838 
H                  11.73851580   28.05478099   34.73670853 


