%nprocshared=4 
%mem=4GB 
# 6-31g(d)  wb97x

tmpdir/M1_conf_0_11.gjf 

0 1
C                   9.99300000   32.17500000   35.05600000 
H                  10.11026100   31.30985500   34.37064600 
H                   9.71054504   31.75706519   36.08975231 
H                   9.22640473   32.80260916   34.60067571 
H                  10.97893273   32.62960041   35.12404528 


