%nprocshared=4 
%mem=4GB 
# 6-31g(d)  wb97x

tmpdir/M1_conf_0_7.gjf 

0 1
C                  11.21000000   28.28000000   35.65500000 
O                  11.63600000   28.16300000   36.78700000 
H                  10.22041215   28.73903042   35.44592107 
H                  11.79272823   28.01216218   34.78344126 


