%nprocshared=4 
%mem=4GB 
# 6-31g(d)  wb97x

tmpdir/M1_conf_1_14.gjf 

0 1
C                  11.31095927   32.83677937   35.24014245 
H                  11.17753421   33.64344119   35.96867728 
H                  11.61221167   33.31117165   34.29753561 
H                  10.34010238   32.32482575   35.08744830 
H                  12.09808758   32.13952349   35.59145002 


