%nprocshared=4 
%mem=4GB 
# 6-31g(d)  wb97x

tmpdir/M1_conf_1_3.gjf 

0 1
C                   7.82097280   28.30529821   36.62708898 
H                   7.28028582   28.30943675   35.67274460 
H                   7.14526042   28.57708455   37.45093368 
H                   8.16239708   27.15947429   36.75879615 
H                   8.71033876   28.97215023   36.55013046 


