%nprocshared=4 
%mem=4GB 
# 6-31g(d)  wb97x

tmpdir/M1_conf_1_0.gjf 

-1 1
C                   5.30499161   30.65434359   38.43522114 
O                   4.56351446   29.75156803   38.89309469 
O                   5.09713493   31.88793812   38.37833991 
H                   6.25235318   30.31160345   37.95307219 


