%nprocshared=4 
%mem=4GB 
# 6-31g(d)  wb97x

tmpdir/M1_conf_1_11.gjf 

0 1
C                   9.96978553   32.12954975   35.02920571 
H                  10.16208842   31.28766062   34.34640681 
H                   9.65476750   31.69689518   36.08589461 
H                   9.18399460   32.77776449   34.57640970 
H                  10.94064242   32.64150337   35.18189986 


