%nprocshared=4 
%mem=4GB 
# 6-31g(d)  wb97x

tmpdir/M1_conf_2_8.gjf 

0 1
C                  11.93997707   27.96609213   34.40104908 
H                  12.32947608   26.95087097   34.48008925 
H                  12.78016043   28.65808740   34.27632982 
H                  11.31158018   28.03767000   33.50924684 
H                  11.38986633   28.21420977   35.31717874 


