%nprocshared=4 
%mem=4GB 
# 6-31g(d)  wb97x

tmpdir/M1_conf_1_9.gjf 

0 1
C                   8.53071263   30.64101662   36.21922335 
H                   8.15849347   30.63779616   35.18851006 
H                   8.90630786   29.61707478   36.43751305 
H                   7.71675551   30.92806241   36.87769222 
H                   9.39730296   31.43058172   36.29880067 


