%nprocshared=4 
%mem=4GB 
# 6-31g(d)  wb97x

tmpdir/M1_conf_1_15.gjf 

0 1
C                  12.39832428   31.87356709   35.72545032 
H                  13.36558028   32.37958863   35.81370846 
H                  12.52253003   31.04143722   35.02011655 
H                  12.13402791   31.45261748   36.69723513 
H                  11.61119597   32.57082297   35.37414275 


