%nprocshared=4 
%mem=4GB 
# 6-31g(d)  wb97x

tmpdir/M1_ref_6.gjf 

0 1
N                  10.32099200   28.85905800   35.83311900 
H                  10.76191100   29.70060500   35.47647800 
H                   9.49325517   29.12089718   36.38697620 
H                  10.80188461   28.05905496   35.72937760 


