%nprocshared=4 
%mem=4GB 
# 6-31g(d)  wb97x

tmpdir/M1_ref_5.gjf 

0 1
C                   9.13883000   29.23301300   36.62413000 
H                   9.46581000   29.53373100   37.63045600 
H                   8.31964875   28.49320368   36.71809837 
H                  10.06802234   28.93908026   36.00238665 
H                   8.73615683   30.15224905   36.12293088 


