%nprocshared=4 
%mem=4GB 
# 6-31g(d)  wb97x

tmpdir/M1_ref_9.gjf 

0 1
C                   8.58256400   30.50287600   35.93175700 
H                   8.38576400   30.23445700   34.87677600 
H                   8.98523717   29.58363995   36.43295612 
H                   7.67512802   30.85301531   36.41454336 
H                   9.46824422   31.26494934   35.94571635 


