%nprocshared=2 
%mem=2GB 
# 6-31g(d)  wb97x

tmpdir/M2_conf_0_79.gjf 

0 1
C                   0.00000000    0.00000000    0.00000000 
C                   1.53100000    0.00000000    0.00000000 
C                   2.21753000    0.00000000    1.36442000 
H                  -0.46029000    0.93166000    0.55077000 
H                  -0.43085000   -0.89274000    0.48714000 
H                  -0.34337000    0.02570000   -1.05146000 
H                   1.88550000    0.86788000   -0.56793000 
H                   1.85834000   -0.88243000   -0.56607000 
H                   3.29589000    0.14364000    1.25083000 
H                   2.06203000   -0.94476000    1.89694000 
H                   1.83958000    0.81161000    1.99383000 


