%nprocshared=2 
%mem=2GB 
# 6-31g(d)  wb97x

tmpdir/M2_conf_0_99.gjf 

0 1
C                   0.00000000    0.00000000    0.00000000 
C                   1.50480000    0.00000000    0.00000000 
H                  -0.44413000    0.00000000   -1.01127000 
H                  -0.36705000   -0.87494000    0.54821000 
H                  -0.37127000    0.88649000    0.52908000 
H                   1.90202000    0.10590000    1.01436000 
H                   1.89929000    0.83618000   -0.59468000 
H                   1.89746000   -0.93985000   -0.40515000 


