%nprocshared=2 
%mem=2GB 
# 6-31g(d)  wb97x

tmpdir/M2_conf_2_55.gjf 

0 1
C                   0.00000000    0.00000000    0.00000000 
C                   1.54960000    0.00000000    0.00000000 
C                   2.12705000    0.00000000    1.38450000 
H                  -0.35426000    0.81364000    0.66311000 
H                  -0.29666000    0.04094000   -1.11654000 
H                  -0.32051000   -0.96602000    0.41723000 
H                   1.84986000   -0.92864000   -0.64254000 
H                   1.87173000    0.90615000   -0.54663000 
O                   1.54965000    0.39503000    2.32467000 
H                   3.14596000   -0.34288000    1.54521000 


