%nprocshared=2 
%mem=2GB 
# 6-31g(d)  wb97x

tmpdir/M2_conf_2_88.gjf 

0 1
N                   0.00000000    0.00000000    0.00000000 
C                   1.34130000    0.00000000    0.00000000 
C                   1.98705000    0.00000000    1.36363000 
H                  -0.70808000   -0.08257000   -0.74316000 
H                  -0.45169000   -0.10602000    0.90253000 
O                   2.05914000    0.02040000   -1.01627000 
H                   2.58891000    0.90732000    1.46286000 
H                   2.66841000   -0.85278000    1.42174000 
H                   1.27021000   -0.05153000    2.18645000 


