%nprocshared=2 
%mem=2GB 
# 6-31g(d)  wb97x

tmpdir/M2_conf_0_37.gjf 

1 1
H                   0.00000000    0.00000000    0.00000000 
N                   1.02290000    0.00000000    0.00000000 
H                   1.36304000    0.00000000    0.96374000 
H                   1.37830000   -0.86399000   -0.48863000 
H                   1.37847000    0.86830000   -0.52628000 


