%nprocshared=2 
%mem=2GB 
# 6-31g(d)  wb97x

tmpdir/M2_conf_0_68.gjf 

0 1
C                   0.00000000    0.00000000    0.00000000 
C                   1.50280000    0.00000000    0.00000000 
H                  -0.33049000    0.00000000   -1.12871000 
H                  -0.43233000   -0.84062000    0.57860000 
H                  -0.35070000    0.94578000    0.45456000 
H                   1.94713000    0.88913000   -0.48276000 
H                   1.85721000   -0.90655000   -0.50334000 
H                   1.83781000   -0.06269000    1.04282000 


