%nprocshared=2 
%mem=2GB 
# 6-31g(d)  wb97x

tmpdir/M2_conf_2_16.gjf 

0 1
C                   0.00000000    0.00000000    0.00000000 
C                   1.49870000    0.00000000    0.00000000 
H                   1.87685000    0.00000000    1.03391000 
H                  -0.47432000   -0.93911000    0.40037000 
O                  -0.62897000    0.92095000   -0.35999000 
H                   1.95214000    0.85137000   -0.53967000 
H                   1.84331000   -0.95876000   -0.40185000 


