%nprocshared=2 
%mem=2GB 
# 6-31g(d)  wb97x

tmpdir/M2_conf_0_44.gjf 

0 1
N                   0.00000000    0.00000000    0.00000000 
C                   1.47070000    0.00000000    0.00000000 
C                   2.12559000    0.00000000    1.40441000 
H                  -0.64579000   -0.24216000   -0.63750000 
H                  -0.33223000    0.52434000    0.80281000 
H                   1.99163000   -0.83733000   -0.50471000 
H                   1.82556000    0.95014000   -0.42581000 
H                   3.20878000   -0.03704000    1.33727000 
H                   1.70138000    0.95156000    1.93353000 
H                   1.73655000   -0.88551000    1.94125000 


