%nprocshared=2 
%mem=2GB 
# 6-31g(d)  wb97x

tmpdir/M2_conf_2_30.gjf 

1 1
N                   0.00000000    0.00000000    0.00000000 
H                   1.06240000    0.00000000    0.00000000 
H                  -0.35540000    0.00000000   -0.99259000 
H                  -0.35557000   -0.88553000    0.49674000 
H                  -0.29897000    0.85068000    0.48109000 


