%nprocshared=2 
%mem=2GB 
# 6-31g(d)  wb97x

tmpdir/M2_conf_2_49.gjf 

0 1
C                   0.00000000    0.00000000    0.00000000 
N                   1.47070000    0.00000000    0.00000000 
C                   2.22888000    0.00000000    1.10646000 
H                  -0.52093000   -0.60353000    0.76916000 
H                  -0.28788000   -0.38502000   -1.01357000 
H                  -0.35486000    1.03942000    0.06066000 
H                   1.80293000    0.20509000   -0.93669000 
O                   1.80329000   -0.13250000    2.26829000 
H                   3.30455000    0.10834000    0.95124000 


