%nprocshared=2 
%mem=2GB 
# 6-31g(d)  wb97x

tmpdir/M2_conf_0_0.gjf 

0 1
C                   0.00000000    0.00000000    0.00000000 
O                   1.20920000    0.00000000    0.00000000 
H                  -0.68626000    0.00000000   -0.75313000 
H                  -0.43079000   -0.00436000    1.04000000 


