%nprocshared=2 
%mem=2GB 
# 6-31g(d)  wb97x

tmpdir/M2_conf_0_55.gjf 

0 1
C                   0.00000000    0.00000000    0.00000000 
C                   1.54960000    0.00000000    0.00000000 
C                   2.26377000    0.00000000    1.31919000 
H                  -0.35426000    0.81364000    0.66311000 
H                  -0.29666000    0.04094000   -1.11654000 
H                  -0.32051000   -0.96602000    0.41723000 
H                   1.84986000   -0.92864000   -0.64254000 
H                   1.87173000    0.90615000   -0.54663000 
O                   1.78416000    0.39503000    2.31280000 
H                   3.29370000   -0.34288000    1.37628000 


