%nprocshared=2 
%mem=2GB 
# 6-31g(d)  wb97x

tmpdir/M2_conf_1_31.gjf 

1 1
N                   0.00000000    0.00000000    0.00000000 
H                   1.04060000    0.00000000    0.00000000 
H                  -0.36318000    0.00000000   -0.98977000 
H                  -0.39917000    0.85478000    0.51706000 
H                  -0.29924000   -0.85385000    0.47720000 


