%nprocshared=2 
%mem=2GB 
# 6-31g(d)  wb97x

tmpdir/M2_conf_2_75.gjf 

0 1
C                   0.00000000    0.00000000    0.00000000 
C                   1.52580000    0.00000000    0.00000000 
H                   1.87430000    0.00000000    1.05008000 
H                  -0.44433000   -0.82037000    0.59211000 
H                  -0.35441000   -0.06077000   -1.03512000 
H                  -0.33501000    0.96705000    0.39524000 
H                   1.85629000   -1.01731000   -0.48894000 
H                   1.95813000    0.88564000   -0.50701000 


