%nprocshared=2 
%mem=2GB 
# 6-31g(d)  wb97x

tmpdir/M2_conf_2_76.gjf 

0 1
C                   0.00000000    0.00000000    0.00000000 
C                   1.53290000    0.00000000    0.00000000 
H                  -0.45732000    0.00000000   -1.00955000 
H                  -0.37111000   -0.86790000    0.55718000 
H                  -0.38068000    0.88242000    0.53168000 
H                   1.91614000   -0.14364000    1.01435000 
H                   1.93871000    0.94476000   -0.37826000 
H                   1.92528000   -0.81161000   -0.62052000 


