%nprocshared=2 
%mem=2GB 
# 6-31g(d)  wb97x

tmpdir/M2_conf_2_79.gjf 

0 1
C                   0.00000000    0.00000000    0.00000000 
C                   1.53100000    0.00000000    0.00000000 
C                   2.17482000    0.00000000    1.38508000 
H                  -0.46029000    0.93166000    0.55077000 
H                  -0.43085000   -0.89274000    0.48714000 
H                  -0.34337000    0.02570000   -1.05146000 
H                   1.88550000    0.86788000   -0.56793000 
H                   1.85834000   -0.88243000   -0.56607000 
H                   3.25619000    0.14364000    1.30505000 
H                   2.00285000   -0.94476000    1.91252000 
H                   1.77750000    0.81161000    2.00245000 


