%nprocshared=2 
%mem=2GB 
# 6-31g(d)  wb97x

tmpdir/M2_conf_2_104.gjf 

0 1
C                   0.00000000    0.00000000    0.00000000 
C                   1.52580000    0.00000000    0.00000000 
H                   1.87446000    0.00000000    1.04022000 
H                  -0.33049000   -0.06773000   -1.12668000 
H                  -0.43233000   -0.80438000    0.62800000 
H                  -0.35070000    0.97135000    0.39700000 
H                   1.97013000    0.85856000   -0.53524000 
H                   1.88021000   -0.93512000   -0.44803000 


