%nprocshared=2 
%mem=2GB 
# 6-31g(d)  wb97x

tmpdir/M2_conf_0_63.gjf 

0 1
C                   0.00000000    0.00000000    0.00000000 
C                   1.32920000    0.00000000    0.00000000 
H                   1.82286000    0.00000000    0.96844000 
H                  -0.60633000   -0.01904000    0.94826000 
H                  -0.58228000   -0.01166000   -0.91533000 
H                   1.92728000    0.03827000   -0.90554000 


