%nprocshared=2 
%mem=2GB 
# 6-31g(d)  wb97x

tmpdir/M2_conf_2_9.gjf 

0 1
C                   0.00000000    0.00000000    0.00000000 
C                   1.55500000    0.00000000    0.00000000 
C                   2.22422000    0.00000000    1.14844000 
O                  -0.47893000   -0.00928000   -1.15620000 
H                  -0.43318000    0.00418000    0.92222000 
H                   2.01213000   -0.03005000   -0.98343000 
H                   3.30824000    0.02009000    1.20898000 
H                   1.63141000    0.01949000    2.05936000 


