%nprocshared=2 
%mem=2GB 
# 6-31g(d)  wb97x

tmpdir/M2_conf_2_65.gjf 

0 1
O                   0.00000000    0.00000000    0.00000000 
C                   1.44130000    0.00000000    0.00000000 
H                  -0.43657000    0.00000000   -0.87448000 
H                   1.87506000    0.96287000   -0.33625000 
H                   1.75167000   -0.27863000    1.02272000 
H                   1.77897000   -0.79045000   -0.69663000 


