%nprocshared=2 
%mem=2GB 
# 6-31g(d)  wb97x

tmpdir/M2_conf_0_59.gjf 

0 1
C                   0.00000000    0.00000000    0.00000000 
C                   1.50010000    0.00000000    0.00000000 
H                   1.59363000    0.00000000    1.10224000 
O                  -0.64545000    0.97434000   -0.08610000 
H                  -0.54054000   -0.93490000    0.12391000 
H                   1.91015000    0.91440000   -0.50415000 
H                   1.98838000   -0.89881000   -0.56491000 


