%nprocshared=2 
%mem=2GB 
# 6-31g(d)  wb97x

tmpdir/M2_conf_1_35.gjf 

1 1
H                   0.00000000    0.00000000    0.00000000 
N                   1.07580000    0.00000000    0.00000000 
H                   1.38560000    0.00000000    0.97486000 
H                   1.41678000   -0.86563000   -0.49595000 
H                   1.45501000    0.83577000   -0.44964000 


