%nprocshared=2 
%mem=2GB 
# 6-31g(d)  wb97x

tmpdir/M2_conf_1_10.gjf 

0 1
C                   0.00000000    0.00000000    0.00000000 
C                   1.49870000    0.00000000    0.00000000 
C                   2.19637000    0.00000000    1.13139000 
H                  -0.45344000   -0.19268000    0.98942000 
H                  -0.34461000   -0.72319000   -0.74680000 
H                  -0.33178000    0.97768000   -0.38216000 
H                   1.97302000    0.03118000   -1.02042000 
H                   1.73999000   -0.04980000    2.11547000 
H                   3.27925000    0.01237000    1.03763000 


