%nprocshared=2 
%mem=2GB 
# 6-31g(d)  wb97x

tmpdir/M2_conf_2_40.gjf 

0 1
C                   0.00000000    0.00000000    0.00000000 
H                   1.09320000    0.00000000    0.00000000 
H                  -0.35975000    0.00000000   -1.04776000 
H                  -0.37292000    0.83869000    0.70275000 
H                  -0.32686000   -0.95394000    0.49152000 


