%nprocshared=2 
%mem=2GB 
# 6-31g(d)  wb97x

tmpdir/M2_conf_2_120.gjf 

0 1
C                   0.00000000    0.00000000    0.00000000 
C                   1.52740000    0.00000000    0.00000000 
H                   1.91099000    0.00000000    1.02433000 
H                  -0.45732000   -0.14155000   -0.99958000 
H                  -0.37111000   -0.78121000    0.67337000 
H                  -0.38068000    0.94825000    0.40270000 
H                   1.93321000    0.88240000   -0.50699000 
H                   1.91978000   -0.89059000   -0.50060000 


