%nprocshared=2 
%mem=2GB 
# 6-31g(d)  wb97x

tmpdir/M2_conf_0_66.gjf 

0 1
C                   0.00000000    0.00000000    0.00000000 
O                   1.42310000    0.00000000    0.00000000 
C                   2.12605000    0.00000000    1.24805000 
H                  -0.28826000    0.64957000   -0.86798000 
H                  -0.45376000   -0.98387000   -0.07260000 
H                  -0.33687000    0.51933000    0.91679000 
H                   2.04595000   -0.96287000    1.79100000 
H                   3.16946000    0.27863000    1.01657000 
H                   1.68479000    0.79045000    1.88413000 


