%nprocshared=2 
%mem=2GB 
# 6-31g(d)  wb97x

tmpdir/M2_conf_1_89.gjf 

0 1
O                   0.00000000    0.00000000    0.00000000 
C                   1.24440000    0.00000000    0.00000000 
C                   2.05597000    0.00000000    1.27194000 
H                   1.85258000   -0.01774000   -0.86101000 
H                   1.80579000   -0.89779000    1.84351000 
H                   1.75641000    0.86367000    1.87129000 
H                   3.13465000    0.03285000    1.10189000 


