%nprocshared=2 
%mem=2GB 
# 6-31g(d)  wb97x

tmpdir/M2_conf_1_1.gjf 

-1 1
C                   0.00000000    0.00000000    0.00000000 
O                   1.25230000    0.00000000    0.00000000 
O                  -0.84292000    0.00000000   -0.92506000 
H                  -0.47859000    0.00445000    1.01889000 


