%nprocshared=2 
%mem=2GB 
# 6-31g(d)  wb97x

tmpdir/M2_conf_1_38.gjf 

0 1
C                   0.00000000    0.00000000    0.00000000 
N                   1.43880000    0.00000000    0.00000000 
H                  -0.52093000    0.00000000   -0.97768000 
H                  -0.28788000    0.92859000    0.55972000 
H                  -0.35486000   -0.85518000    0.59392000 
H                   2.08459000   -0.42097000   -0.53650000 
H                   1.77103000    0.41688000    0.86351000 


