%nprocshared=2 
%mem=2GB 
# 6-31g(d)  wb97x

tmpdir/M2_conf_0_19.gjf 

0 1
H                   0.00000000    0.00000000    0.00000000 
C                   1.09520000    0.00000000    0.00000000 
H                   1.37753000    0.00000000    1.06408000 
H                   1.43657000    0.93655000   -0.42819000 
H                   1.49993000   -0.90018000   -0.49754000 


