%nprocshared=2 
%mem=2GB 
# 6-31g(d)  wb97x

tmpdir/M2_conf_0_88.gjf 

0 1
N                   0.00000000    0.00000000    0.00000000 
C                   1.34130000    0.00000000    0.00000000 
C                   1.99086000    0.00000000    1.36182000 
H                  -0.70808000   -0.08257000   -0.74316000 
H                  -0.45169000   -0.10602000    0.90253000 
O                   2.05914000    0.02040000   -1.01627000 
H                   2.59299000    0.90732000    1.45937000 
H                   2.67238000   -0.85278000    1.41802000 
H                   1.27632000   -0.05153000    2.18664000 


