%nprocshared=2 
%mem=2GB 
# 6-31g(d)  wb97x

tmpdir/M2_conf_0_24.gjf 

0 1
C                   0.00000000    0.00000000    0.00000000 
C                   1.52680000    0.00000000    0.00000000 
C                   2.27547000    0.00000000    1.33466000 
H                  -0.44507000    0.63465000    0.75904000 
H                  -0.40104000    0.29609000   -0.97517000 
H                  -0.37635000   -1.02217000    0.15970000 
H                   1.87381000   -0.95766000   -0.60261000 
H                   1.93147000    0.85742000   -0.54961000 
H                   3.43105000    0.01834000    1.30972000 
H                   1.98537000    0.91910000    1.90871000 
H                   1.94704000   -0.86575000    1.92847000 


