%nprocshared=2 
%mem=2GB 
# 6-31g(d)  wb97x

tmpdir/M2_conf_0_123.gjf 

0 1
H                   0.00000000    0.00000000    0.00000000 
C                   1.09380000    0.00000000    0.00000000 
H                   1.42070000    0.00000000    1.04569000 
H                   1.48117000    0.87528000   -0.55333000 
H                   1.42508000   -0.93476000   -0.46280000 


