%nprocshared=2 
%mem=2GB 
# 6-31g(d)  wb97x

tmpdir/M2_conf_0_3.gjf 

-1 1
O                   0.00000000    0.00000000    0.00000000 
C                   1.25150000    0.00000000    0.00000000 
O                   1.95221000    0.00000000    1.02413000 
H                   1.68229000   -0.00436000   -1.04000000 


