%nprocshared=2 
%mem=2GB 
# 6-31g(d)  wb97x

tmpdir/M2_conf_2_107.gjf 

0 1
H                   0.00000000    0.00000000    0.00000000 
C                   1.09580000    0.00000000    0.00000000 
H                   1.42022000    0.00000000    1.04804000 
H                   1.45302000    0.93800000   -0.46094000 
H                   1.46593000   -0.91151000   -0.50318000 


