%nprocshared=2 
%mem=2GB 
# 6-31g(d)  wb97x

tmpdir/M2_conf_2_11.gjf 

0 1
C                   0.00000000    0.00000000    0.00000000 
C                   1.52820000    0.00000000    0.00000000 
H                  -0.44507000    0.00000000   -0.98940000 
H                  -0.40104000   -0.85268000    0.55819000 
H                  -0.37635000    0.88662000    0.53315000 
H                   1.87521000    0.34815000    1.07659000 
H                   1.93457000    0.66106000   -0.79062000 
H                   1.93287000   -1.01035000   -0.12817000 


