%nprocshared=2 
%mem=2GB 
# 6-31g(d)  wb97x

tmpdir/M2_conf_0_110.gjf 

0 1
C                   0.00000000    0.00000000    0.00000000 
H                   1.09370000    0.00000000    0.00000000 
H                  -0.39582000    0.00000000   -1.03168000 
H                  -0.32347000   -0.88962000    0.54944000 
H                  -0.35572000    0.87716000    0.55903000 


