%nprocshared=2 
%mem=2GB 
# 6-31g(d)  wb97x

tmpdir/M2_conf_1_15.gjf 

0 1
C                   0.00000000    0.00000000    0.00000000 
C                   1.49870000    0.00000000    0.00000000 
H                   1.81763000    0.00000000    1.04774000 
H                  -0.47432000    0.73226000    0.71135000 
O                  -0.62897000   -0.68788000   -0.71033000 
H                   1.95214000   -0.82672000   -0.57673000 
H                   1.83048000    0.96812000   -0.40577000 


