%nprocshared=2 
%mem=2GB 
# 6-31g(d)  wb97x

tmpdir/M2_conf_0_113.gjf 

0 1
C                   0.00000000    0.00000000    0.00000000 
C                   1.52640000    0.00000000    0.00000000 
H                   1.91942000    0.00000000    1.02332000 
H                  -0.44413000   -0.92866000    0.40033000 
H                  -0.36705000    0.84989000    0.58630000 
H                  -0.37127000    0.13493000   -1.02351000 
H                   1.92362000    0.88958000   -0.49880000 
H                   1.92089000   -0.87721000   -0.53230000 


