%nprocshared=2 
%mem=2GB 
# 6-31g(d)  wb97x

tmpdir/M2_conf_1_73.gjf 

0 1
C                   0.00000000    0.00000000    0.00000000 
C                   1.53100000    0.00000000    0.00000000 
C                   2.14868000    0.00000000    1.39518000 
H                  -0.45620000   -0.88404000    0.48239000 
H                  -0.35450000    0.08282000   -1.03388000 
H                  -0.32734000    0.91959000    0.50346000 
H                   1.99129000   -0.92974000   -0.55401000 
H                   1.87437000    0.91068000   -0.52620000 
H                   3.24855000    0.10628000    1.39417000 
H                   1.87013000   -0.92853000    1.90609000 
H                   1.69644000    0.82346000    1.96178000 


