%nprocshared=2 
%mem=2GB 
# 6-31g(d)  wb97x

tmpdir/M2_conf_2_73.gjf 

0 1
C                   0.00000000    0.00000000    0.00000000 
C                   1.53100000    0.00000000    0.00000000 
C                   2.14624000    0.00000000    1.39626000 
H                  -0.45620000   -0.88404000    0.48239000 
H                  -0.35450000    0.08282000   -1.03388000 
H                  -0.32734000    0.91959000    0.50346000 
H                   1.99129000   -0.92974000   -0.55401000 
H                   1.87437000    0.91068000   -0.52620000 
H                   3.24612000    0.10628000    1.39717000 
H                   1.86680000   -0.92853000    1.90668000 
H                   1.69302000    0.82346000    1.96206000 


