%nprocshared=2 
%mem=2GB 
# 6-31g(d)  wb97x

tmpdir/M2_conf_0_43.gjf 

0 1
C                   0.00000000    0.00000000    0.00000000 
C                   1.53030000    0.00000000    0.00000000 
H                   1.71091000    0.00000000    1.08507000 
H                  -0.40545000    0.85566000    0.57022000 
H                  -0.43337000   -0.98361000    0.49535000 
H                  -0.36293000   -0.00559000   -1.03404000 
H                   2.07390000   -0.83866000   -0.58093000 
H                   1.88904000    0.95394000   -0.46877000 


