%nprocshared=2 
%mem=2GB 
# 6-31g(d)  wb97x

tmpdir/M2_conf_1_78.gjf 

0 1
C                   0.00000000    0.00000000    0.00000000 
H                   1.09710000    0.00000000    0.00000000 
H                  -0.33032000    0.00000000   -1.05793000 
H                  -0.38321000   -0.84764000    0.59750000 
H                  -0.29900000    0.94667000    0.46459000 


