%nprocshared=2 
%mem=2GB 
# 6-31g(d)  wb97x

tmpdir/M2_conf_0_4.gjf 

0 1
O                   0.00000000    0.00000000    0.00000000 
C                   1.25150000    0.00000000    0.00000000 
C                   2.02641000    0.00000000    1.34816000 
H                   1.93776000    0.00315000   -0.75312000 
H                   1.40141000    0.02215000    2.23467000 
O                   3.19698000    0.00793000    1.40338000 


