%nprocshared=2 
%mem=2GB 
# 6-31g(d)  wb97x

tmpdir/M2_conf_0_111.gjf 

0 1
C                   0.00000000    0.00000000    0.00000000 
C                   1.52640000    0.00000000    0.00000000 
H                   1.92149000    0.00000000    1.02070000 
H                  -0.44413000    0.10500000   -1.00581000 
H                  -0.36705000   -0.92705000    0.45456000 
H                  -0.37127000    0.82676000    0.61827000 
H                   1.92089000    0.89332000   -0.50480000 
H                   1.91906000   -0.89270000   -0.50055000 


