%nprocshared=2 
%mem=2GB 
# 6-31g(d)  wb97x

tmpdir/M2_conf_2_106.gjf 

0 1
C                   0.00000000    0.00000000    0.00000000 
C                   1.52640000    0.00000000    0.00000000 
H                   1.91885000    0.00000000    1.02451000 
H                  -0.39722000    0.81675000    0.61079000 
H                  -0.39449000   -0.93918000    0.41325000 
H                  -0.39266000    0.13377000   -1.01468000 
H                   1.97053000   -0.86837000   -0.51827000 
H                   1.89345000    0.91914000   -0.47035000 


