%nprocshared=2 
%mem=2GB 
# 6-31g(d)  wb97x

tmpdir/M2_conf_0_52.gjf 

0 1
C                   0.00000000    0.00000000    0.00000000 
C                   1.52380000    0.00000000    0.00000000 
H                  -0.41005000    0.00000000   -1.04417000 
H                  -0.48828000    0.92867000    0.51435000 
H                  -0.39119000   -0.90612000    0.49959000 
O                   2.16925000   -0.39503000   -0.89481000 
H                   2.06434000    0.34288000    0.87853000 


