%nprocshared=2 
%mem=2GB 
# 6-31g(d)  wb97x

tmpdir/M2_conf_1_20.gjf 

1 1
C                   0.00000000    0.00000000    0.00000000 
N                   1.53030000    0.00000000    0.00000000 
H                  -0.32408000    0.00000000   -1.05672000 
H                  -0.40565000   -0.87221000    0.54947000 
H                  -0.29526000    0.92189000    0.51375000 
H                   1.87824000   -0.14080000    1.00820000 
H                   1.87511000   -0.76392000   -0.58639000 
H                   1.88236000    0.86991000   -0.40472000 


