%nprocshared=2 
%mem=2GB 
# 6-31g(d)  wb97x

tmpdir/M2_conf_2_36.gjf 

1 1
H                   0.00000000    0.00000000    0.00000000 
N                   1.07580000    0.00000000    0.00000000 
H                   1.41779000    0.00000000    0.96308000 
H                   1.41678000    0.84687000   -0.52734000 
H                   1.41388000   -0.85018000   -0.45739000 


