%nprocshared=2 
%mem=2GB 
# 6-31g(d)  wb97x

tmpdir/M2_conf_0_14.gjf 

0 1
C                   0.00000000    0.00000000    0.00000000 
C                   1.49870000    0.00000000    0.00000000 
C                   2.16585000    0.00000000    1.37333000 
H                  -0.47432000    0.16445000   -1.00756000 
O                  -0.62897000   -0.18901000    0.97058000 
H                   1.84331000    0.85261000   -0.59479000 
H                   1.83048000   -0.88660000   -0.56200000 
H                   3.28585000   -0.34815000    1.21503000 
H                   1.63227000   -0.66106000    2.08432000 
H                   2.22738000    1.01035000    1.79333000 


