%nprocshared=2 
%mem=2GB 
# 6-31g(d)  wb97x

tmpdir/M2_conf_1_121.gjf 

0 1
C                   0.00000000    0.00000000    0.00000000 
C                   1.52740000    0.00000000    0.00000000 
H                   1.92573000    0.00000000    1.02062000 
H                  -0.45732000    0.93722000    0.37524000 
H                  -0.37111000   -0.19467000   -1.01283000 
H                  -0.38068000   -0.82158000    0.62158000 
H                   1.91064000   -0.88828000   -0.51037000 
H                   1.91978000    0.87773000   -0.52282000 


