%nprocshared=2 
%mem=2GB 
# 6-31g(d)  wb97x

tmpdir/M2_conf_2_97.gjf 

0 1
H                   0.00000000    0.00000000    0.00000000 
C                   1.09330000    0.00000000    0.00000000 
H                   1.44880000    0.00000000    1.03304000 
H                   1.44022000   -0.85452000   -0.58510000 
H                   1.42055000    0.91518000   -0.50022000 


