%nprocshared=2 
%mem=2GB 
# 6-31g(d)  wb97x

tmpdir/M2_conf_0_46.gjf 

0 1
C                   0.00000000    0.00000000    0.00000000 
C                   1.54960000    0.00000000    0.00000000 
H                   1.70991000    0.00000000    1.08826000 
H                  -0.39693000   -0.92791000    0.40077000 
H                  -0.30026000    0.95798000    0.59792000 
H                  -0.32213000    0.14271000   -1.04859000 
H                   1.90386000   -0.93137000   -0.48401000 
H                   1.84626000    1.00878000   -0.48030000 


