%nprocshared=2 
%mem=2GB 
# 6-31g(d)  wb97x

tmpdir/M2_conf_1_62.gjf 

0 1
C                   0.00000000    0.00000000    0.00000000 
C                   1.32920000    0.00000000    0.00000000 
C                   2.18124000    0.00000000    1.23464000 
H                  -0.60633000   -0.02102000   -0.94822000 
H                  -0.58228000    0.05030000    0.91402000 
H                   1.81778000   -0.04100000   -0.97014000 
H                   1.62795000    0.42170000    2.11468000 
H                   3.15453000    0.64184000    1.15622000 
H                   2.47839000   -1.03070000    1.50487000 


