%nprocshared=2 
%mem=2GB 
# 6-31g(d)  wb97x

tmpdir/M2_conf_0_57.gjf 

0 1
C                   0.00000000    0.00000000    0.00000000 
C                   1.54960000    0.00000000    0.00000000 
H                   1.67904000    0.00000000    1.09860000 
H                  -0.35426000   -0.98813000    0.35400000 
H                  -0.29666000    0.93491000    0.61178000 
H                  -0.32051000    0.14190000   -1.04266000 
H                   1.94653000   -0.86548000   -0.52209000 
H                   1.84986000    1.02986000   -0.46327000 


