%nprocshared=2 
%mem=2GB 
# 6-31g(d)  wb97x

tmpdir/M2_conf_1_64.gjf 

0 1
C                   0.00000000    0.00000000    0.00000000 
C                   1.50010000    0.00000000    0.00000000 
H                   1.96635000    0.00000000    0.98193000 
H                  -0.41005000    0.37964000   -0.97271000 
H                  -0.48828000    0.67811000    0.81679000 
H                  -0.39119000   -1.02575000    0.13595000 
O                   2.14555000   -0.04250000   -0.97721000 


