%nprocshared=2 
%mem=2GB 
# 6-31g(d)  wb97x

tmpdir/M2_conf_2_60.gjf 

0 1
O                   0.00000000    0.00000000    0.00000000 
C                   1.42310000    0.00000000    0.00000000 
H                   1.77172000    0.00000000    1.04983000 
H                  -0.43943000    0.43384000    0.76587000 
H                   1.71136000   -0.99300000   -0.43507000 
H                   1.87686000    0.82029000   -0.54810000 


