%nprocshared=2 
%mem=2GB 
# 6-31g(d)  wb97x

tmpdir/M2_conf_0_122.gjf 

0 1
C                   0.00000000    0.00000000    0.00000000 
C                   1.52740000    0.00000000    0.00000000 
H                   1.92352000    0.00000000    1.02020000 
H                  -0.45732000   -0.80200000    0.61318000 
H                  -0.37111000    0.96978000    0.35106000 
H                  -0.38068000   -0.11359000   -1.02394000 
H                   1.91064000    0.89305000   -0.50198000 
H                   1.93321000   -0.87432000   -0.52079000 


