%nprocshared=2 
%mem=2GB 
# 6-31g(d)  wb97x

tmpdir/M2_conf_1_28.gjf 

0 1
C                   0.00000000    0.00000000    0.00000000 
C                   1.53030000    0.00000000    0.00000000 
H                   1.89323000    0.00000000    1.03406000 
H                  -0.54360000   -0.83551000    0.58546000 
H                  -0.35874000    0.95646000    0.46361000 
H                  -0.35722000   -0.00563000   -1.04037000 
H                   1.93575000    0.85256000   -0.57484000 
H                   1.96367000   -0.98628000   -0.49002000 


