%nprocshared=2 
%mem=2GB 
# 6-31g(d)  wb97x

tmpdir/M2_conf_0_32.gjf 

1 1
C                   0.00000000    0.00000000    0.00000000 
N                   1.50570000    0.00000000    0.00000000 
H                   1.91860000    0.00000000    0.99341000 
H                  -0.32408000   -0.14615000   -1.04657000 
H                  -0.40565000   -0.78783000    0.66483000 
H                  -0.29526000    0.98408000    0.38131000 
H                   1.85051000   -0.83768000   -0.47510000 
H                   1.85776000    0.80566000   -0.52101000 


