%nprocshared=2 
%mem=2GB 
# 6-31g(d)  wb97x

tmpdir/M2_conf_1_51.gjf 

0 1
C                   0.00000000    0.00000000    0.00000000 
N                   1.34130000    0.00000000    0.00000000 
H                   1.82894000    0.00000000    0.88996000 
O                  -0.71784000    0.09831000   -1.01171000 
H                  -0.47999000   -0.11446000    0.97438000 
H                   2.04938000    0.16871000   -0.72845000 


