%nprocshared=2 
%mem=2GB 
# 6-31g(d)  wb97x

tmpdir/M2_conf_2_5.gjf 

-1 1
O                   0.00000000    0.00000000    0.00000000 
C                   1.24090000    0.00000000    0.00000000 
C                   1.94903000    0.00000000    1.38440000 
O                   2.08382000   -0.00404000   -0.92505000 
H                   3.03286000   -0.02558000    1.34348000 
O                   1.35743000   -0.00448000    2.39601000 


