%nprocshared=2 
%mem=2GB 
# 6-31g(d)  wb97x

tmpdir/M2_conf_2_74.gjf 

0 1
C                   0.00000000    0.00000000    0.00000000 
C                   1.53100000    0.00000000    0.00000000 
H                   1.86407000    0.00000000    1.05508000 
H                  -0.45620000    0.02461000   -1.00679000 
H                  -0.35450000    0.85375000    0.58896000 
H                  -0.32734000   -0.89599000    0.54434000 
H                   1.99129000    0.94484000   -0.52784000 
H                   1.96185000   -0.88057000   -0.50881000 


