%nprocshared=2 
%mem=2GB 
# 6-31g(d)  wb97x

tmpdir/M2_conf_2_92.gjf 

0 1
C                   0.00000000    0.00000000    0.00000000 
H                   1.09330000    0.00000000    0.00000000 
H                  -0.43674000    0.00000000   -1.00108000 
H                  -0.36297000   -0.88035000    0.53716000 
H                  -0.36309000    0.88201000    0.53395000 


