%nprocshared=2 
%mem=2GB 
# 6-31g(d)  wb97x

tmpdir/M2_conf_0_71.gjf 

0 1
O                   0.00000000    0.00000000    0.00000000 
C                   1.43240000    0.00000000    0.00000000 
C                   1.91781000    0.00000000    1.44653000 
H                  -0.43657000   -0.22987000   -0.84373000 
H                   1.86616000    0.84062000   -0.57753000 
H                   1.77007000   -0.94577000   -0.46435000 
H                   1.60149000   -0.88913000    2.02135000 
H                   1.55337000    0.90655000    1.94265000 
H                   3.01302000    0.06269000    1.43238000 


