%nprocshared=2 
%mem=2GB 
# 6-31g(d)  wb97x

tmpdir/M2_conf_0_72.gjf 

0 1
O                   0.00000000    0.00000000    0.00000000 
C                   1.43240000    0.00000000    0.00000000 
H                   1.76178000    0.00000000    1.05623000 
H                  -0.43657000   -0.65606000    0.57819000 
H                   1.86616000   -0.88889000   -0.50005000 
H                   1.74277000    0.95150000   -0.46716000 


