%nprocshared=2 
%mem=2GB 
# 6-31g(d)  wb97x

tmpdir/M2_conf_1_101.gjf 

0 1
C                   0.00000000    0.00000000    0.00000000 
H                   1.09740000    0.00000000    0.00000000 
H                  -0.33727000    0.00000000   -1.05174000 
H                  -0.37394000   -0.85847000    0.58671000 
H                  -0.31837000    0.93516000    0.47423000 


