%nprocshared=2 
%mem=2GB 
# 6-31g(d)  wb97x

tmpdir/M2_conf_1_8.gjf 

0 1
C                   0.00000000    0.00000000    0.00000000 
C                   1.55500000    0.00000000    0.00000000 
C                   2.23749000    0.00000000    1.33428000 
O                  -0.47893000   -0.02603000    1.15594000 
H                  -0.43318000    0.02398000   -0.92192000 
O                   2.18621000    0.03015000   -0.98692000 
H                   3.32969000   -0.16238000    1.28493000 
H                   1.74953000   -0.74566000    1.97095000 
H                   2.02207000    0.96562000    1.81713000 


