%nprocshared=2 
%mem=2GB 
# 6-31g(d)  wb97x

tmpdir/M2_conf_2_50.gjf 

0 1
C                   0.00000000    0.00000000    0.00000000 
N                   1.47070000    0.00000000    0.00000000 
H                   1.93236000    0.00000000    0.90371000 
H                  -0.52093000    0.42505000   -0.88044000 
H                  -0.28788000    0.59289000    0.90776000 
H                  -0.35486000   -1.02837000    0.16288000 
H                   2.11649000   -0.14586000   -0.66617000 


