%nprocshared=2 
%mem=2GB 
# 6-31g(d)  wb97x

tmpdir/M2_conf_1_94.gjf 

0 1
C                   0.00000000    0.00000000    0.00000000 
C                   1.50880000    0.00000000    0.00000000 
H                   1.87800000    0.00000000    1.02886000 
H                  -0.46333000    0.77841000   -0.53940000 
O                  -0.59740000   -0.90871000    0.60489000 
H                   1.85607000   -0.92905000   -0.45997000 
H                   1.94566000    0.85132000   -0.52722000 


