%nprocshared=2 
%mem=2GB 
# 6-31g(d)  wb97x

tmpdir/M2_conf_0_26.gjf 

1 1
N                   0.00000000    0.00000000    0.00000000 
C                   1.50570000    0.00000000    0.00000000 
C                   2.21634000    0.00000000    1.35529000 
H                  -0.34794000   -0.77799000    0.65652000 
H                  -0.34481000    0.90327000    0.33395000 
H                  -0.35206000   -0.12125000   -0.95176000 
H                   1.82978000    0.89409000   -0.56326000 
H                   1.80096000   -0.92607000   -0.50617000 
H                   2.03681000   -0.89607000    2.06322000 
H                   3.32422000    0.01039000    1.17944000 
H                   1.96779000    0.92920000    1.88896000 


