%nprocshared=2 
%mem=2GB 
# 6-31g(d)  wb97x

tmpdir/M2_conf_0_45.gjf 

0 1
N                   0.00000000    0.00000000    0.00000000 
C                   1.47070000    0.00000000    0.00000000 
H                   1.61485000    0.00000000    1.09051000 
H                  -0.64579000    0.68079000    0.03973000 
H                  -0.33223000   -0.94707000    0.15000000 
H                   1.99163000    0.80301000   -0.55769000 
H                   1.75858000   -0.98941000   -0.44342000 


