%nprocshared=2 
%mem=2GB 
# 6-31g(d)  wb97x

tmpdir/M2_conf_0_48.gjf 

0 1
N                   0.00000000    0.00000000    0.00000000 
H                   1.01320000    0.00000000    0.00000000 
H                  -0.33714000    0.00000000   -0.97305000 
H                  -0.41804000    0.14590000    0.82828000 


