%nprocshared=2 
%mem=2GB 
# 6-31g(d)  wb97x

tmpdir/M2_conf_2_91.gjf 

0 1
C                   0.00000000    0.00000000    0.00000000 
H                   1.09560000    0.00000000    0.00000000 
H                  -0.34385000    0.00000000   -1.03666000 
H                  -0.32731000    0.92905000    0.47439000 
H                  -0.36289000   -0.85127000    0.58070000 


