%nprocshared=2 
%mem=2GB 
# 6-31g(d)  wb97x

tmpdir/M2_conf_0_89.gjf 

0 1
O                   0.00000000    0.00000000    0.00000000 
C                   1.24440000    0.00000000    0.00000000 
C                   2.05574000    0.00000000    1.27208000 
H                   1.85258000   -0.01774000   -0.86101000 
H                   1.80547000   -0.89779000    1.84361000 
H                   1.75609000    0.86367000    1.87138000 
H                   3.13446000    0.03285000    1.10222000 


