%nprocshared=2 
%mem=2GB 
# 6-31g(d)  wb97x

tmpdir/M2_conf_1_12.gjf 

0 1
C                   0.00000000    0.00000000    0.00000000 
H                   1.09590000    0.00000000    0.00000000 
H                  -0.34137000    0.00000000   -1.02979000 
H                  -0.40473000    0.82679000    0.61179000 
H                  -0.28066000   -0.96813000    0.44263000 


