%nprocshared=2 
%mem=2GB 
# 6-31g(d)  wb97x

tmpdir/M2_conf_2_25.gjf 

0 1
C                   0.00000000    0.00000000    0.00000000 
C                   1.52680000    0.00000000    0.00000000 
H                   1.91829000    0.00000000    1.02359000 
H                  -0.44507000   -0.98154000    0.12452000 
H                  -0.40104000    0.66120000    0.77553000 
H                  -0.37635000    0.41717000   -0.94674000 
H                   1.87381000    1.02413000   -0.48105000 
H                   1.93317000   -0.86763000   -0.55615000 


