%nprocshared=2 
%mem=2GB 
# 6-31g(d)  wb97x

tmpdir/M2_conf_1_11.gjf 

0 1
C                   0.00000000    0.00000000    0.00000000 
C                   1.51910000    0.00000000    0.00000000 
H                  -0.44507000    0.00000000   -0.98940000 
H                  -0.40104000   -0.85268000    0.55819000 
H                  -0.37635000    0.88662000    0.53315000 
H                   1.86611000    0.34815000    1.07659000 
H                   1.92547000    0.66106000   -0.79062000 
H                   1.92377000   -1.01035000   -0.12817000 


