%nprocshared=2 
%mem=2GB 
# 6-31g(d)  wb97x

tmpdir/M2_conf_0_98.gjf 

0 1
H                   0.00000000    0.00000000    0.00000000 
C                   1.09310000    0.00000000    0.00000000 
H                   1.43559000    0.00000000    1.03743000 
H                   1.43695000    0.85639000   -0.58419000 
H                   1.42041000   -0.91544000   -0.50015000 


