%nprocshared=2 
%mem=2GB 
# 6-31g(d)  wb97x

tmpdir/M2_conf_0_21.gjf 

0 1
C                   0.00000000    0.00000000    0.00000000 
C                   1.52090000    0.00000000    0.00000000 
H                  -0.40545000    0.00000000   -1.02825000 
H                  -0.43337000    0.95767000    0.54381000 
H                  -0.36293000   -0.85737000    0.57809000 
H                   2.06450000   -0.01834000    1.02005000 
H                   1.87964000   -0.91910000   -0.53385000 
H                   1.87812000    0.86575000   -0.57695000 


