%nprocshared=2 
%mem=2GB 
# 6-31g(d)  wb97x

tmpdir/M2_conf_2_102.gjf 

0 1
C                   0.00000000    0.00000000    0.00000000 
C                   1.52580000    0.00000000    0.00000000 
C                   2.10130000    0.00000000    1.41375000 
H                  -0.33049000    0.99193000    0.53857000 
H                  -0.43233000   -0.10720000   -1.01485000 
H                  -0.35070000   -0.85087000    0.61412000 
H                   1.88021000    0.87491000   -0.55652000 
H                   1.86081000   -0.88653000   -0.55268000 
H                   3.19057000   -0.10590000    1.39921000 
H                   1.69925000   -0.83618000    2.00334000 
H                   1.87410000    0.93985000    1.93019000 


