%nprocshared=2 
%mem=2GB 
# 6-31g(d)  wb97x

tmpdir/M2_conf_2_117.gjf 

0 1
C                   0.00000000    0.00000000    0.00000000 
H                   1.09410000    0.00000000    0.00000000 
H                  -0.38737000    0.00000000   -1.03552000 
H                  -0.33273000   -0.88233000    0.55778000 
H                  -0.33128000    0.89059000    0.54298000 


