%nprocshared=2 
%mem=2GB 
# 6-31g(d)  wb97x

tmpdir/M2_conf_2_95.gjf 

0 1
C                   0.00000000    0.00000000    0.00000000 
C                   1.50880000    0.00000000    0.00000000 
H                   1.92194000    0.00000000    1.01137000 
H                  -0.46333000    0.04874000    0.94578000 
O                  -0.59740000   -0.03581000   -1.09104000 
H                   1.85607000    0.88030000   -0.54751000 
H                   1.85293000   -0.88206000   -0.54626000 


