%nprocshared=2 
%mem=2GB 
# 6-31g(d)  wb97x

tmpdir/M2_conf_1_5.gjf 

-1 1
O                   0.00000000    0.00000000    0.00000000 
C                   1.24090000    0.00000000    0.00000000 
C                   1.89930000    0.00000000    1.40873000 
O                   2.08382000   -0.00404000   -0.92505000 
H                   2.98390000   -0.02558000    1.40641000 
O                   1.27207000   -0.00448000    2.39864000 


