%nprocshared=2 
%mem=2GB 
# 6-31g(d)  wb97x

tmpdir/M2_conf_2_86.gjf 

0 1
C                   0.00000000    0.00000000    0.00000000 
C                   1.51550000    0.00000000    0.00000000 
H                  -0.46333000    0.00000000   -0.94703000 
O                  -0.59740000   -0.02038000    1.09143000 
H                   1.86277000   -0.90732000    0.50148000 
H                   1.85963000    0.85278000    0.59093000 
H                   1.95236000    0.05153000   -1.00003000 


