%nprocshared=2 
%mem=2GB 
# 6-31g(d)  wb97x

tmpdir/M2_conf_1_112.gjf 

0 1
C                   0.00000000    0.00000000    0.00000000 
C                   1.52640000    0.00000000    0.00000000 
H                   1.91497000    0.00000000    1.02833000 
H                  -0.44413000    0.82411000    0.58610000 
H                  -0.36705000    0.06033000   -1.03073000 
H                  -0.37127000   -0.94494000    0.41578000 
H                   1.92362000   -0.88792000   -0.50175000 
H                   1.91906000    0.87497000   -0.53094000 


