%nprocshared=2 
%mem=2GB 
# 6-31g(d)  wb97x

tmpdir/M2_conf_0_70.gjf 

0 1
O                   0.00000000    0.00000000    0.00000000 
C                   1.43240000    0.00000000    0.00000000 
C                   2.06292000    0.00000000    1.39514000 
H                  -0.43657000    0.82559000    0.28831000 
H                   1.74277000   -0.87368000   -0.60024000 
H                   1.77007000    0.91828000   -0.51658000 
H                   1.78377000   -0.86693000    2.02192000 
H                   1.79147000    0.93055000    1.90684000 
H                   3.15244000    0.03823000    1.26196000 


