%nprocshared=2 
%mem=2GB 
# 6-31g(d)  wb97x

tmpdir/M2_conf_2_18.gjf 

0 1
C                   0.00000000    0.00000000    0.00000000 
C                   1.52680000    0.00000000    0.00000000 
H                   1.88031000    0.00000000    1.04260000 
H                  -0.34701000    0.74321000    0.85316000 
H                  -0.40637000   -1.01822000    0.15909000 
H                  -0.40467000    0.41066000   -0.93198000 
H                   1.97187000   -0.84791000   -0.50988000 
H                   1.92784000    0.91778000   -0.44308000 


