%nprocshared=2 
%mem=2GB 
# 6-31g(d)  wb97x

tmpdir/M2_conf_1_4.gjf 

0 1
O                   0.00000000    0.00000000    0.00000000 
C                   1.25150000    0.00000000    0.00000000 
C                   1.93244000    0.00000000    1.39798000 
H                   1.93776000    0.00315000   -0.75312000 
H                   1.24829000    0.02215000    2.23969000 
O                   3.09649000    0.00793000    1.53310000 


