%nprocshared=2 
%mem=2GB 
# 6-31g(d)  wb97x

tmpdir/M2_conf_2_96.gjf 

0 1
H                   0.00000000    0.00000000    0.00000000 
C                   1.09330000    0.00000000    0.00000000 
H                   1.44575000    0.00000000    1.03472000 
H                   1.44022000    0.92317000   -0.46936000 
H                   1.45601000   -0.90427000   -0.49426000 


