%nprocshared=2 
%mem=2GB 
# 6-31g(d)  wb97x

tmpdir/M2_conf_0_125.gjf 

0 1
H                   0.00000000    0.00000000    0.00000000 
C                   1.09560000    0.00000000    0.00000000 
H                   1.42433000    0.00000000    1.04386000 
H                   1.50511000    0.86661000   -0.55103000 
H                   1.42779000   -0.93651000   -0.45717000 


