%nprocshared=2 
%mem=2GB 
# 6-31g(d)  wb97x

tmpdir/M2_conf_2_77.gjf 

0 1
C                   0.00000000    0.00000000    0.00000000 
H                   1.09480000    0.00000000    0.00000000 
H                  -0.35845000    0.00000000   -1.04873000 
H                  -0.37433000    0.84269000    0.61000000 
H                  -0.29960000   -0.95687000    0.44823000 


