%nprocshared=2 
%mem=2GB 
# 6-31g(d)  wb97x

tmpdir/M2_conf_2_67.gjf 

0 1
C                   0.00000000    0.00000000    0.00000000 
C                   1.53390000    0.00000000    0.00000000 
H                  -0.46029000    0.00000000   -1.08228000 
H                  -0.43085000    0.87365000    0.52059000 
H                  -0.34337000   -0.91820000    0.51296000 
H                   1.99010000    0.86693000   -0.51250000 
H                   1.88840000   -0.93055000   -0.45809000 
H                   1.86124000   -0.03823000    1.04769000 


