%nprocshared=2 
%mem=2GB 
# 6-31g(d)  wb97x

tmpdir/M2_ref_72.gjf 

0 1
O                   9.66122800   31.43100000   35.94875800 
C                   9.79768800   32.27464800   34.79923700 
H                   9.74144000   31.63216400   33.90019800 
H                   8.92039186   30.79355608   35.93708156 
H                   8.99931268   33.03978899   34.72557436 
H                  10.81026046   32.71239272   34.85388026 


