%nprocshared=2 
%mem=2GB 
# 6-31g(d)  wb97x

tmpdir/M2_ref_94.gjf 

0 1
C                  11.00779600   27.71650500   35.68495700 
C                  12.27388000   27.80505300   34.86911000 
H                  13.10037100   27.42271500   35.47367700 
H                  10.46796050   28.61456423   35.80141396 
O                  10.66992700   26.61097100   36.14557000 
H                  12.17347500   27.14941100   33.99997000 
H                  12.50771100   28.81830800   34.53409200 


