%nprocshared=2 
%mem=2GB 
# 6-31g(d)  wb97x

tmpdir/M2_ref_81.gjf 

0 1
C                   9.79768800   32.27464800   34.79923700 
C                   8.69478600   33.33163900   34.69747700 
H                   8.86705800   33.89625800   33.77135700 
H                   9.68564206   31.58193706   35.74309720 
H                  10.81026046   32.71239272   34.85388026 
H                   9.74144000   31.63216400   33.90019800 
H                   8.64115908   34.01961012   35.56134011 
H                   7.73099700   32.82661800   34.56492300 


