%nprocshared=2 
%mem=2GB 
# 6-31g(d)  wb97x

tmpdir/M2_ref_12.gjf 

0 1
C                   6.84798700   28.76088500   37.58168900 
H                   5.93539300   28.17384200   37.43344600 
H                   6.61838339   29.80343937   37.38846283 
H                   7.68711493   28.36284253   36.98249381 
H                   7.07277800   28.66401400   38.65506100 


