%nprocshared=2 
%mem=2GB 
# 6-31g(d)  wb97x

tmpdir/M2_ref_0.gjf 

0 1
C                   5.22017500   30.71649700   37.97411200 
O                   4.62023100   29.82145000   38.61067800 
H                   5.01321762   31.70133534   37.81468013 
H                   6.16892171   30.34341122   37.49681632 


