%nprocshared=2 
%mem=2GB 
# 6-31g(d)  wb97x

tmpdir/M2_ref_121.gjf 

0 1
C                   8.69478600   33.33163900   34.69747700 
C                   8.62070400   34.28202500   35.89084600 
H                   9.49422400   34.94152300   35.93921100 
H                   9.49316132   32.56649801   34.77113964 
H                   7.73099700   32.82661800   34.56492300 
H                   8.86705800   33.89625800   33.77135700 
H                   7.73062800   34.91407000   35.82268100 
H                   8.56128400   33.72644100   36.83190000 


