%nprocshared=2 
%mem=2GB 
# 6-31g(d)  wb97x

tmpdir/M2_ref_33.gjf 

1 1
C                   8.00718600   28.21101600   36.75394100 
N                   8.47663200   26.95205800   37.43349300 
H                   8.66667900   27.14314000   38.42023400 
H                   7.16805807   28.60905847   37.35313619 
H                   8.82636725   28.95082532   36.65997263 
H                   7.68016500   27.90277100   35.75446700 
H                   9.38000900   26.61519700   36.95615300 
H                   7.74343800   26.24082400   37.40246000 


