%nprocshared=2 
%mem=2GB 
# 6-31g(d)  wb97x

tmpdir/M2_ref_79.gjf 

0 1
C                   9.79768800   32.27464800   34.79923700 
C                   8.69478600   33.33163900   34.69747700 
C                   8.62070400   34.28202500   35.89084600 
H                   9.68564206   31.58193706   35.74309720 
H                  10.81026046   32.71239272   34.85388026 
H                   9.74144000   31.63216400   33.90019800 
H                   7.73099700   32.82661800   34.56492300 
H                   8.86705800   33.89625800   33.77135700 
H                   7.73062800   34.91407000   35.82268100 
H                   9.49422400   34.94152300   35.93921100 
H                   8.56128400   33.72644100   36.83190000 


