%nprocshared=2 
%mem=2GB 
# 6-31g(d)  wb97x

tmpdir/M2_ref_97.gjf 

0 1
H                  12.17347500   27.14941100   33.99997000 
C                  12.27388000   27.80505300   34.86911000 
H                  12.50771100   28.81830800   34.53409200 
H                  11.35737952   27.74095434   35.45969022 
H                  13.10037100   27.42271500   35.47367700 


