%nprocshared=2 
%mem=2GB 
# 6-31g(d)  wb97x

tmpdir/M2_ref_23.gjf 

1 1
C                   6.84798700   28.76088500   37.58168900 
C                   8.00718600   28.21101600   36.75394100 
N                   8.47663200   26.95205800   37.43349300 
H                   6.61838339   29.80343937   37.38846283 
H                   5.93539300   28.17384200   37.43344600 
H                   7.07277800   28.66401400   38.65506100 
H                   8.82636725   28.95082532   36.65997263 
H                   7.68016500   27.90277100   35.75446700 
H                   9.38000900   26.61519700   36.95615300 
H                   8.66667900   27.14314000   38.42023400 
H                   7.74343800   26.24082400   37.40246000 


