%nprocshared=2 
%mem=2GB 
# 6-31g(d)  wb97x

tmpdir/M2_ref_8.gjf 

0 1
C                   5.22017500   30.71649700   37.97411200 
C                   6.53080500   30.20110400   37.31476000 
C                   6.84798700   28.76088500   37.58168900 
O                   4.62023100   29.82145000   38.61067800 
H                   5.01321762   31.70133534   37.81468013 
O                   7.23450825   30.89358339   36.68346476 
H                   7.68711493   28.36284253   36.98249381 
H                   5.93539300   28.17384200   37.43344600 
H                   7.07277800   28.66401400   38.65506100 


