%nprocshared=2 
%mem=2GB 
# 6-31g(d)  wb97x

tmpdir/M2_ref_9.gjf 

0 1
C                   5.22017500   30.71649700   37.97411200 
C                   6.53080500   30.20110400   37.31476000 
C                   7.32900200   30.98657000   36.59869400 
O                   4.62023100   29.82145000   38.61067800 
H                   5.01321762   31.70133534   37.81468013 
H                   6.76040861   29.15854963   37.50798617 
H                   8.23643798   30.63643069   36.11590764 
H                   7.01408100   32.01935800   36.47356800 


