%nprocshared=2 
%mem=2GB 
# 6-31g(d)  wb97x

tmpdir/M2_ref_100.gjf 

0 1
C                  11.19648900   32.87936300   34.87472300 
H                  11.27855000   33.46882600   35.79478300 
H                  10.18391654   32.44161828   34.82007974 
H                  12.00723408   32.12931069   34.84220894 
H                  11.30451700   33.57944500   34.03695400 


