%nprocshared=2 
%mem=2GB 
# 6-31g(d)  wb97x

tmpdir/M2_ref_3.gjf 

-1 1
O                   4.62023100   29.82145000   38.61067800 
C                   5.22017500   30.71649700   37.97411200 
O                   4.96812300   31.91592500   37.77994100 
H                   6.16892171   30.34341122   37.49681632 


