%nprocshared=2 
%mem=2GB 
# 6-31g(d)  wb97x

tmpdir/M2_ref_26.gjf 

1 1
N                   8.47663200   26.95205800   37.43349300 
C                   8.00718600   28.21101600   36.75394100 
C                   9.13883000   29.23301300   36.62413000 
H                   9.38000900   26.61519700   36.95615300 
H                   8.66667900   27.14314000   38.42023400 
H                   7.74343800   26.24082400   37.40246000 
H                   7.16805807   28.60905847   37.35313619 
H                   7.68016500   27.90277100   35.75446700 
H                  10.06802234   28.93908026   36.00238665 
H                   8.73615683   30.15224905   36.12293088 
H                   9.46581000   29.53373100   37.63045600 


