%nprocshared=2 
%mem=2GB 
# 6-31g(d)  wb97x

tmpdir/M2_ref_85.gjf 

0 1
C                  11.00779600   27.71650500   35.68495700 
O                  10.66992700   26.61097100   36.14557000 
H                  10.46796050   28.61456423   35.80141396 
H                  11.92429648   27.78060366   35.09437678 


