%nprocshared=2 
%mem=2GB 
# 6-31g(d)  wb97x

tmpdir/M2_ref_66.gjf 

0 1
C                   8.58256400   30.50287600   35.93175700 
O                   9.66122800   31.43100000   35.94875800 
C                   9.79768800   32.27464800   34.79923700 
H                   8.98523717   29.58363995   36.43295612 
H                   7.67512802   30.85301531   36.41454336 
H                   8.38576400   30.23445700   34.87677600 
H                   8.99931268   33.03978899   34.72557436 
H                  10.81026046   32.71239272   34.85388026 
H                   9.74144000   31.63216400   33.90019800 


