%nprocshared=2 
%mem=2GB 
# 6-31g(d)  wb97x

tmpdir/M2_ref_119.gjf 

0 1
C                   8.62070400   34.28202500   35.89084600 
H                   8.56128400   33.72644100   36.83190000 
H                   8.67433092   33.59405388   35.02698289 
H                   7.73062800   34.91407000   35.82268100 
H                   9.49422400   34.94152300   35.93921100 


