%nprocshared=2 
%mem=2GB 
# 6-31g(d)  wb97x

tmpdir/M2_ref_24.gjf 

0 1
C                   6.84798700   28.76088500   37.58168900 
C                   8.00718600   28.21101600   36.75394100 
C                   9.13883000   29.23301300   36.62413000 
H                   6.61838339   29.80343937   37.38846283 
H                   5.93539300   28.17384200   37.43344600 
H                   7.07277800   28.66401400   38.65506100 
H                   8.37617572   27.22146116   37.28807635 
H                   7.68016500   27.90277100   35.75446700 
H                  10.06802234   28.93908026   36.00238665 
H                   8.73615683   30.15224905   36.12293088 
H                   9.46581000   29.53373100   37.63045600 


