%nprocshared=2 
%mem=2GB 
# 6-31g(d)  wb97x

tmpdir/M2_ref_53.gjf 

0 1
C                   8.58256400   30.50287600   35.93175700 
O                   9.66122800   31.43100000   35.94875800 
H                   8.98523717   29.58363995   36.43295612 
H                   7.67512802   30.85301531   36.41454336 
H                   8.38576400   30.23445700   34.87677600 
H                   9.75494996   32.01042504   35.15925663 


