%nprocshared=2 
%mem=2GB 
# 6-31g(d)  wb97x

tmpdir/M2_ref_116.gjf 

0 1
H                  12.22210100   31.19842300   33.94444500 
C                  12.31647900   31.84321600   34.82980700 
H                  12.30694800   31.21547800   35.72843500 
H                  11.50573392   32.59326831   34.86232106 
H                  13.29916500   32.32250700   34.78047800 


