%nprocshared=2 
%mem=2GB 
# 6-31g(d)  wb97x

tmpdir/M2_ref_73.gjf 

0 1
C                   8.69478600   33.33163900   34.69747700 
C                   9.79768800   32.27464800   34.79923700 
C                  11.19648900   32.87936300   34.87472300 
H                   8.64115908   34.01961012   35.56134011 
H                   7.73099700   32.82661800   34.56492300 
H                   8.86705800   33.89625800   33.77135700 
H                   9.68564206   31.58193706   35.74309720 
H                   9.74144000   31.63216400   33.90019800 
H                  12.00723408   32.12931069   34.84220894 
H                  11.27855000   33.46882600   35.79478300 
H                  11.30451700   33.57944500   34.03695400 


