%nprocshared=2 
%mem=2GB 
# 6-31g(d)  wb97x

tmpdir/M2_ref_61.gjf 

0 1
C                   7.32900200   30.98657000   36.59869400 
H                   7.01408100   32.01935800   36.47356800 
O                   6.62529875   30.29409061   37.22998924 
H                   8.23643798   30.63643069   36.11590764 


