%nprocshared=2 
%mem=2GB 
# 6-31g(d)  wb97x

tmpdir/M2_ref_39.gjf 

0 1
C                   9.13883000   29.23301300   36.62413000 
C                   8.58256400   30.50287600   35.93175700 
H                   8.31964875   28.49320368   36.71809837 
H                  10.06802234   28.93908026   36.00238665 
H                   9.46581000   29.53373100   37.63045600 
H                   7.67512802   30.85301531   36.41454336 
H                   9.46824422   31.26494934   35.94571635 
H                   8.38576400   30.23445700   34.87677600 


