%nprocshared=4 
%mem=4GB 
# 6-31g(d)  wb97x

tmpdir/M1_conf_0_2.gjf 

0 1
N                  -6.27300000    6.60100000    8.63100000 
H                  -5.70794748    6.98190282    9.39140525 
H                  -7.20495156    6.97069979    8.44404954 
H                  -5.89839889    5.84619626    8.05684502 


