%nprocshared=4 
%mem=4GB 
# 6-31g(d)  wb97x

tmpdir/M1_conf_2_3.gjf 

0 1
C                  -7.69585556    7.14153456    8.35025241 
H                  -8.56229113    6.64394463    8.81608715 
H                  -7.83371674    7.08271772    7.26182355 
H                  -7.74216607    8.20354544    8.61665337 
H                  -6.70986171    6.68154524    8.67032063 


