%nprocshared=4 
%mem=4GB 
# 6-31g(d)  wb97x

tmpdir/M1_conf_1_7.gjf 

0 1
C                  -2.30029521    6.53313485    8.12821665 
H                  -1.99561634    6.41441265    7.08035053 
H                  -1.77291281    7.42217801    8.50063854 
H                  -3.41679034    6.69977756    8.19969779 
H                  -1.94283243    5.65606029    8.69942448 


