%nprocshared=4 
%mem=4GB 
# 6-31g(d)  wb97x

tmpdir/M1_conf_0_3.gjf 

0 1
C                  -7.60400000    7.12900000    8.36400000 
H                  -8.41437500    6.59769500    8.89370600 
H                  -7.82041600    7.07988200    7.28992800 
H                  -7.65375700    8.18522800    8.65410500 
H                  -6.55781936    6.71398619    8.57386494 


