%nprocshared=4 
%mem=4GB 
# 6-31g(d)  wb97x

tmpdir/M1_conf_1_9.gjf 

0 1
C                  -0.24644608    2.03235184   11.27498012 
O                   0.91355159    1.68737303   11.10908379 
N                  -1.10130736    1.44988189   12.16350120 
H                  -2.07593886    1.66843830   12.03558765 
H                  -0.67497212    2.85837847   10.69310715 
H                  -0.94737009    0.63517563   12.71806907 


