%nprocshared=4 
%mem=4GB 
# 6-31g(d)  wb97x

tmpdir/M1_conf_0_8.gjf 

0 1
C                  -1.79500000    5.37400000    9.00200000 
C                  -2.49200000    4.95600000   10.14500000 
H                  -3.40238700    5.46946200   10.43223000 
C                  -2.02200000    3.87900000   10.90500000 
H                  -2.56095700    3.57514100   11.80085900 
C                  -0.62300000    4.71600000    8.62600000 
H                  -0.08247600    5.02807700    7.73502200 
C                  -0.15900000    3.64100000    9.38400000 
H                   0.75043300    3.11321300    9.10949400 
C                  -0.85400000    3.21600000   10.52100000 
H                  -2.12292036    6.21949885    8.38090581 
H                  -0.45224327    2.37339670   11.09359383 


