%nprocshared=4 
%mem=4GB 
# 6-31g(d)  wb97x

tmpdir/M1_conf_1_2.gjf 

0 1
N                  -6.47217777    6.44637390    8.88971982 
H                  -5.82784428    6.97534982    9.48381435 
H                  -7.27177696    6.95027003    8.50142381 
H                  -5.99370634    5.81045695    8.24184913 


