%nprocshared=4 
%mem=4GB 
# 6-31g(d)  wb97x

tmpdir/M1_conf_1_12.gjf 

0 1
N                   1.60561339   -1.37926692   15.17771470 
H                   1.50254238   -2.05011649   15.92596218 
H                   0.79284162   -1.16192325   14.66802004 
H                   2.48769972   -0.99698801   15.13365533 


