%nprocshared=4 
%mem=4GB 
# 6-31g(d)  wb97x

tmpdir/M1_conf_1_4.gjf 

0 1
C                  -5.78883166    5.53816633    7.96444009 
H                  -6.53114201    5.14661666    7.25862392 
H                  -5.38506755    4.69329252    8.54331214 
H                  -6.32594922    6.25202747    8.69172014 
H                  -4.93320151    6.00867796    7.43294803 


