%nprocshared=4 
%mem=4GB 
# 6-31g(d)  wb97x

tmpdir/M1_conf_0_5.gjf 

0 1
C                  -4.50200000    6.09900000    7.11500000 
H                  -3.88489300    5.31754400    6.65651800 
H                  -4.83362600    6.78953100    6.31963200 
H                  -5.39672310    5.68204166    7.61882466 
H                  -3.85904300    6.64527765    7.89943898 


