%nprocshared=4 
%mem=4GB 
# 6-31g(d)  wb97x

tmpdir/M1_conf_0_7.gjf 

0 1
C                  -2.24800000    6.54200000    8.14400000 
H                  -1.88175700    6.38259700    7.12025800 
H                  -1.74097000    7.45118600    8.49764300 
H                  -3.37671180    6.74007477    8.11963366 
H                  -1.92007964    5.69650115    8.76509419 


