%nprocshared=4 
%mem=4GB 
# 6-31g(d)  wb97x

tmpdir/M1_conf_2_4.gjf 

0 1
C                  -5.79528519    5.57300713    7.91525220 
H                  -6.51028153    5.20767606    7.17017869 
H                  -5.47572305    4.71053753    8.52159997 
H                  -6.30316056    6.34589763    8.57723537 
H                  -4.89130345    5.98899470    7.42179322 


