%nprocshared=4 
%mem=4GB 
# 6-31g(d)  wb97x

tmpdir/M1_conf_0_0.gjf 

0 1
C                  -4.25200000    7.78000000    9.03600000 
H                  -4.58947600    8.68781900    8.50630300 
H                  -3.47074100    8.06924200    9.74899000 
H                  -5.13079760    7.32033239    9.52896637 
H                  -3.80554575    7.00499315    8.31051185 


