%nprocshared=4 
%mem=4GB 
# 6-31g(d)  wb97x

tmpdir/M1_conf_1_6.gjf 

0 1
N                  -3.72075259    6.74514551    8.21915830 
H                  -4.14508658    7.47061686    8.77354409 
H                  -4.34117841    6.35514101    7.52671418 
H                  -2.72616396    6.59669798    8.15548196 


