%nprocshared=4 
%mem=4GB 
# 6-31g(d)  wb97x

tmpdir/M1_conf_1_5.gjf 

0 1
C                  -4.60683595    6.18814662    7.23021943 
H                  -4.05371437    5.45666919    6.63178491 
H                  -4.98163743    6.96472930    6.53643768 
H                  -5.46246610    5.71763499    7.76171149 
H                  -3.91036468    6.62595387    8.00753626 


