%nprocshared=4 
%mem=4GB 
# 6-31g(d)  wb97x

tmpdir/M1_conf_0_12.gjf 

0 1
N                   1.55100000   -1.39800000   15.14300000 
H                   1.51411100   -2.14538800   15.81841200 
H                   0.76258719   -1.18234179   14.63326241 
H                   2.41573342   -0.98628887   15.10168885 


