%nprocshared=4 
%mem=4GB 
# 6-31g(d)  wb97x

tmpdir/M1_conf_1_11.gjf 

0 1
C                  -0.51189822   -3.20262036   15.45393215 
H                  -1.40516767   -3.82522234   15.37738079 
H                  -0.36063092   -2.95908423   16.51130176 
H                   0.33754221   -3.82028505   15.14372237 
H                  -0.60311494   -2.31151845   14.83401513 


