%nprocshared=4 
%mem=4GB 
# 6-31g(d)  wb97x

tmpdir/M1_conf_0_4.gjf 

0 1
C                  -5.73800000    5.52300000    7.81100000 
H                  -6.50020700    5.20348600    7.09340000 
H                  -5.45311200    4.65317600    8.42602200 
H                  -6.15851588    6.37031986    8.45552902 
H                  -4.84327690    5.93995834    7.30717534 


