%nprocshared=4 
%mem=4GB 
# 6-31g(d)  wb97x

tmpdir/M1_conf_1_3.gjf 

0 1
C                  -7.61415400    7.16603120    8.33516097 
H                  -8.55699259    6.74226859    8.71377754 
H                  -7.64964267    7.11420857    7.24047915 
H                  -7.59542798    8.22629795    8.60242124 
H                  -6.71654812    6.60037265    8.77105033 


