%nprocshared=4 
%mem=4GB 
# 6-31g(d)  wb97x

tmpdir/M1_conf_2_10.gjf 

0 1
C                  -0.91442528    0.28425905   12.93727002 
C                   0.27931490    0.06752792   13.62968917 
H                   1.09941751    0.76283443   13.53567003 
C                  -1.98313800   -0.59826238   13.06641634 
H                  -2.89942921   -0.45168318   12.50254959 
C                  -1.85159771   -1.70507455   13.89439569 
H                  -2.68084183   -2.40699646   13.97875358 
C                  -0.67380406   -1.96579150   14.58743272 
C                   0.40921987   -1.07083185   14.44371251 
H                  -1.09387672    1.18407106   12.30527922 
H                  -0.61584172   -2.85313085   15.22492474 
H                   1.32690614   -1.30717378   15.02075253 


