%nprocshared=4 
%mem=4GB 
# 6-31g(d)  wb97x

tmpdir/M1_conf_2_1.gjf 

0 1
C                  -5.56920062    7.22743760    9.69334773 
H                  -6.11988197    8.03051463   10.19239744 
H                  -5.25275841    6.51806473   10.47683169 
H                  -4.65249953    7.62868565    9.20299889 
H                  -6.25478095    6.69992755    8.95772826 


