%nprocshared=4 
%mem=4GB 
# 6-31g(d)  wb97x

tmpdir/M1_conf_1_1.gjf 

0 1
C                  -5.55194982    7.20184981    9.73819720 
H                  -6.10712374    7.99980126   10.23829060 
H                  -5.18339619    6.52555975   10.52569111 
H                  -4.66506681    7.62127196    9.21173447 
H                  -6.27525911    6.60803743    9.07128465 


