%nprocshared=4 
%mem=4GB 
# 6-31g(d)  wb97x

tmpdir/M1_conf_1_8.gjf 

0 1
C                  -1.80648433    5.32151512    8.91730199 
C                  -2.46984901    4.91509539   10.07383763 
H                  -3.36828197    5.43988191   10.37642653 
C                  -1.98595277    3.87119989   10.85219097 
H                  -2.48690776    3.63423773   11.78905854 
C                  -0.65512912    4.62959042    8.54014529 
H                  -0.12703209    4.90509695    7.63158787 
C                  -0.18160469    3.56748153    9.30410414 
H                   0.70696712    3.02362255    9.00599899 
C                  -0.83842609    3.17345227   10.47116160 
H                  -2.16394711    6.19858968    8.34609416 
H                  -0.40990005    2.34742564   11.05303457 


