%nprocshared=4 
%mem=4GB 
# 6-31g(d)  wb97x

tmpdir/M1_conf_1_13.gjf 

0 1
C                   2.86539657   -0.83330160   15.11478973 
N                   3.15037548    0.10167837   14.20326474 
N                   3.71370038   -1.30253392   16.04968810 
C                   4.96057889   -0.81518188   16.01895377 
H                   5.66549351   -1.21579907   16.73971755 
C                   5.37169161    0.14967785   15.11739907 
H                   6.39158655    0.50353510   15.10458679 
C                   4.38888514    0.62538199   14.23965826 
H                   1.87519313   -1.26243635   15.16424945 
H                   4.58607961    1.45131506   13.58692905 


