%nprocshared=4 
%mem=4GB 
# 6-31g(d)  wb97x

tmpdir/M1_conf_2_0.gjf 

0 1
C                  -4.30283949    7.78173489    9.01596367 
H                  -4.58337518    8.64809124    8.38552258 
H                  -3.59109426    8.13450570    9.77226829 
H                  -5.21954058    7.38048684    9.50631251 
H                  -3.82313823    6.95001773    8.41108020 


