%nprocshared=4 
%mem=4GB 
# 6-31g(d)  wb97x

tmpdir/M1_conf_2_6.gjf 

0 1
N                  -3.69254108    6.72358537    8.24640260 
H                  -4.11986531    7.46449002    8.78524080 
H                  -4.29047021    6.32033302    7.53722954 
H                  -2.69481073    6.60423521    8.17993778 


