%nprocshared=4 
%mem=4GB 
# 6-31g(d)  wb97x

tmpdir/M1_conf_0_9.gjf 

0 1
C                  -0.29900000    2.05200000   11.31200000 
O                   0.91600000    1.93400000   11.35500000 
N                  -1.11300000    1.15200000   11.85900000 
H                  -2.09312500    1.26966800   11.63987300 
H                  -0.70075673    2.89460330   10.73940617 
H                  -0.93795275    0.47211648   12.51157615 


