%nprocshared=4 
%mem=4GB 
# 6-31g(d)  wb97x

tmpdir/M1_ref_6.gjf 

0 1
N                  -3.83196200    6.72408600    8.69119300 
H                  -4.13840462    7.64838729    8.38860982 
H                  -4.30193446    6.00450387    8.14047965 
H                  -2.82071474    6.63030969    8.65237242 


