%nprocshared=4 
%mem=4GB 
# 6-31g(d)  wb97x

tmpdir/M1_ref_10.gjf 

0 1
C                  -0.88003800    0.16142000   13.11386500 
C                   0.39309500   -0.13856500   13.59764500 
H                   1.23073400    0.50003200   13.37036600 
C                  -1.96331300   -0.65879100   13.42037000 
H                  -2.95635600   -0.42654400   13.04124300 
C                  -1.76034500   -1.78362300   14.20776100 
H                  -2.60630700   -2.42488700   14.44604800 
C                  -0.50593200   -2.12138800   14.70000800 
C                   0.58085100   -1.27786900   14.38414800 
H                  -1.08401257    1.06927843   12.50554122 
H                  -0.37454669   -3.01451999   15.31377863 
H                   1.56226591   -1.57112106   14.79085839 


