%nprocshared=4 
%mem=4GB 
# 6-31g(d)  wb97x

tmpdir/M1_ref_14.gjf 

0 1
C                   4.69497800    1.86036600   13.47925300 
C                   3.78847300    2.25712900   12.49560900 
H                   2.93967000    1.63118600   12.24037500 
C                   3.98992200    3.46811100   11.85054700 
H                   3.29588400    3.80352400   11.08542800 
C                   5.09066400    4.23911200   12.20995300 
H                   5.28206000    5.19319200   11.72052500 
N                   5.96520700    3.88438100   13.15447300 
C                   5.75709100    2.72060800   13.76776700 
H                   6.47024600    2.47149700   14.55323900 
H                   4.55922693    0.93027383   14.00034958 


