%nprocshared=4 
%mem=4GB 
# 6-31g(d)  wb97x

tmpdir/M1_ref_8.gjf 

0 1
C                  -1.87580800    5.37814200    9.38628800 
C                  -2.47812500    4.97968700   10.58063300 
H                  -3.34291200    5.53223700   10.93853000 
C                  -1.98380100    3.89481300   11.29402400 
H                  -2.45010400    3.62849400   12.24066100 
C                  -0.76387700    4.67246100    8.92584400 
H                  -0.28813700    4.96981900    7.99315000 
C                  -0.25734100    3.59727300    9.64421000 
H                   0.61549900    3.05145900    9.29743100 
C                  -0.87166400    3.18958200   10.82761000 
H                  -2.24636886    6.25550197    8.84298405 
H                  -0.43468081    2.34186155   11.35068496 


