%nprocshared=2 
%mem=2GB 
# 6-31g(d)  wb97x

tmpdir/M2_conf_1_192.gjf 

0 1
C                   0.00000000    0.00000000    0.00000000 
C                   1.39690000    0.00000000    0.00000000 
N                   2.14702000    0.00000000    1.10046000 
H                  -0.56839000   -0.00414000   -0.91208000 
O                  -0.57142000   -0.01445000    1.08923000 
H                   1.94805000   -0.02428000   -0.93985000 
H                   1.69921000   -0.00407000    1.92112000 


