%nprocshared=2 
%mem=2GB 
# 6-31g(d)  wb97x

tmpdir/M2_conf_0_42.gjf 

0 1
C                   0.00000000    0.00000000    0.00000000 
H                   1.09620000    0.00000000    0.00000000 
H                  -0.36973000    0.00000000   -1.03717000 
H                  -0.34049000    0.92411000    0.50594000 
H                  -0.37137000   -0.93116000    0.55508000 


