%nprocshared=2 
%mem=2GB 
# 6-31g(d)  wb97x

tmpdir/M2_conf_0_90.gjf 

0 1
C                   0.00000000    0.00000000    0.00000000 
C                   1.39700000    0.00000000    0.00000000 
C                   2.08676000    0.00000000    1.21174000 
O                  -0.61984000    0.01143000    1.05643000 
H                  -0.55284000   -0.05135000   -0.93601000 
H                   1.99813000   -0.02278000   -0.90621000 
H                   1.58372000    0.02090000    2.08187000 
H                   3.17277000   -0.01465000    1.19113000 


