%nprocshared=2 
%mem=2GB 
# 6-31g(d)  wb97x

tmpdir/M2_conf_2_184.gjf 

0 1
C                   0.00000000    0.00000000    0.00000000 
H                   1.08230000    0.00000000    0.00000000 
O                  -0.62355000    0.00000000   -1.05605000 
H                  -0.45710000    0.00429000    0.94472000 


