%nprocshared=2 
%mem=2GB 
# 6-31g(d)  wb97x

tmpdir/M2_conf_0_70.gjf 

0 1
C                   0.00000000    0.00000000    0.00000000 
C                   1.39940000    0.00000000    0.00000000 
H                  -0.51398000    0.00000000   -0.86979000 
H                  -0.55540000   -0.00408000    0.93427000 
H                   1.92752000    0.03703000    0.95085000 
H                   1.91115000    0.00381000   -0.87225000 


