%nprocshared=2 
%mem=2GB 
# 6-31g(d)  wb97x

tmpdir/M2_conf_1_52.gjf 

0 1
C                   0.00000000    0.00000000    0.00000000 
N                   1.45630000    0.00000000    0.00000000 
C                   2.03573000    0.00000000    1.33770000 
H                  -0.40428000   -0.91862000    0.46705000 
H                  -0.35264000    0.03424000   -1.03768000 
H                  -0.38110000    0.87710000    0.54679000 
H                   1.83372000   -0.77438000   -0.53921000 
H                   1.68585000    0.87571000    1.90615000 
H                   3.12745000    0.02948000    1.25172000 
H                   1.76212000   -0.92143000    1.88725000 


