%nprocshared=2 
%mem=2GB 
# 6-31g(d)  wb97x

tmpdir/M2_conf_1_161.gjf 

0 1
C                   0.00000000    0.00000000    0.00000000 
C                   1.40090000    0.00000000    0.00000000 
H                  -0.44732000    0.00000000   -0.90152000 
H                  -0.58041000   -0.02203000    0.91467000 
H                   1.94753000   -0.01399000   -0.90036000 
H                   1.97849000    0.00569000    0.90627000 


