%nprocshared=2 
%mem=2GB 
# 6-31g(d)  wb97x

tmpdir/M2_conf_1_158.gjf 

0 1
N                   0.00000000    0.00000000    0.00000000 
C                   1.32510000    0.00000000    0.00000000 
C                   2.08368000    0.00000000    1.16499000 
H                  -0.40500000    0.00446000    0.85214000 
H                   1.80198000    0.00564000   -0.97946000 
H                   3.16619000    0.03040000    1.13010000 
O                   1.45967000   -0.00979000    2.22270000 


