%nprocshared=2 
%mem=2GB 
# 6-31g(d)  wb97x

tmpdir/M2_conf_0_135.gjf 

0 1
H                   0.00000000    0.00000000    0.00000000 
C                   1.09340000    0.00000000    0.00000000 
H                   1.41561000    0.00000000    1.04997000 
H                   1.47551000   -0.86374000   -0.54730000 
H                   1.41809000    0.94852000   -0.44776000 


