%nprocshared=2 
%mem=2GB 
# 6-31g(d)  wb97x

tmpdir/M2_conf_2_38.gjf 

0 1
N                   0.00000000    0.00000000    0.00000000 
C                   1.45380000    0.00000000    0.00000000 
C                   2.01280000    0.00000000    1.41477000 
H                  -0.34861000   -0.80907000    0.50970000 
H                  -0.37107000    0.03227000   -0.94290000 
H                   1.80608000    0.89780000   -0.52169000 
H                   1.85798000   -0.88243000   -0.53589000 
H                   3.10711000   -0.03547000    1.37790000 
H                   1.71954000    0.94044000    1.92019000 
H                   1.63086000   -0.91214000    1.99375000 


