%nprocshared=2 
%mem=2GB 
# 6-31g(d)  wb97x

tmpdir/M2_conf_1_107.gjf 

0 1
C                   0.00000000    0.00000000    0.00000000 
C                   1.39460000    0.00000000    0.00000000 
C                   2.11158000    0.00000000    1.19420000 
H                  -0.54849000   -0.01036000   -0.92739000 
H                  -0.49891000    0.00952000    0.87962000 
H                   1.98716000   -0.03545000   -0.93994000 
H                   3.19954000    0.00245000    1.18490000 
O                   1.50368000    0.00634000    2.25609000 


