%nprocshared=2 
%mem=2GB 
# 6-31g(d)  wb97x

tmpdir/M2_conf_0_78.gjf 

0 1
H                   0.00000000    0.00000000    0.00000000 
C                   1.08830000    0.00000000    0.00000000 
C                   1.79754000    0.00000000    1.20357000 
O                   1.68270000    0.04634000   -1.07001000 
O                   3.02499000    0.05883000    1.17436000 
H                   1.32209000   -0.02689000    2.18149000 


