%nprocshared=2 
%mem=2GB 
# 6-31g(d)  wb97x

tmpdir/M2_conf_1_1.gjf 

0 1
C                   0.00000000    0.00000000    0.00000000 
H                   1.09500000    0.00000000    0.00000000 
H                  -0.34080000    0.00000000   -1.05324000 
H                  -0.36754000    0.91281000    0.49520000 
H                  -0.36814000   -0.92897000    0.55841000 


