%nprocshared=2 
%mem=2GB 
# 6-31g(d)  wb97x

tmpdir/M2_conf_0_96.gjf 

0 1
C                   0.00000000    0.00000000    0.00000000 
C                   1.50260000    0.00000000    0.00000000 
N                   2.20210000    0.00000000    1.17762000 
H                  -0.55891000    0.38381000    0.75036000 
O                  -0.56415000   -0.47308000   -0.98431000 
O                   2.13347000   -0.01516000   -1.04610000 
H                   1.66296000   -0.18201000    2.01085000 
H                   3.18392000   -0.01944000    1.30546000 


