%nprocshared=2 
%mem=2GB 
# 6-31g(d)  wb97x

tmpdir/M2_conf_2_109.gjf 

0 1
C                   0.00000000    0.00000000    0.00000000 
C                   1.40550000    0.00000000    0.00000000 
C                  -0.68800000    0.00000000   -1.21308000 
H                  -0.53614000   -0.00033000    0.93464000 
C                   2.12507000   -0.00890000   -1.21428000 
H                   2.00559000    0.00549000    0.92439000 


