%nprocshared=2 
%mem=2GB 
# 6-31g(d)  wb97x

tmpdir/M2_conf_1_123.gjf 

0 1
C                   0.00000000    0.00000000    0.00000000 
C                   1.50490000    0.00000000    0.00000000 
H                  -0.50962000    0.00000000   -0.86690000 
O                  -0.64964000   -0.00167000    1.06136000 
H                   1.88764000   -0.00483000   -1.02421000 
H                   1.91728000   -0.88349000    0.50496000 
H                   1.91793000    0.88896000    0.49540000 


