%nprocshared=2 
%mem=2GB 
# 6-31g(d)  wb97x

tmpdir/M2_conf_1_138.gjf 

0 1
C                   0.00000000    0.00000000    0.00000000 
C                   1.39710000    0.00000000    0.00000000 
C                   2.11200000    0.00000000    1.21706000 
O                  -0.60656000   -0.00784000    1.06944000 
H                  -0.53614000    0.00701000   -0.93462000 
H                   1.99719000    0.00113000   -0.92440000 
H                   1.58673000    0.00093000    2.07457000 
H                   3.20342000    0.00049000    1.23688000 


