%nprocshared=2 
%mem=2GB 
# 6-31g(d)  wb97x

tmpdir/M2_conf_1_137.gjf 

0 1
C                   0.00000000    0.00000000    0.00000000 
N                   1.40490000    0.00000000    0.00000000 
H                  -0.55065000    0.00000000   -0.84824000 
O                  -0.55253000    0.00136000    1.11501000 
H                   1.85155000   -0.03173000    0.90397000 
H                   2.05986000    0.02949000   -0.70371000 


