%nprocshared=2 
%mem=2GB 
# 6-31g(d)  wb97x

tmpdir/M2_conf_1_101.gjf 

0 1
C                   0.00000000    0.00000000    0.00000000 
N                   1.36970000    0.00000000    0.00000000 
C                   2.23874000    0.00000000    1.11593000 
H                  -0.45796000    0.02462000   -0.98628000 
O                  -0.68317000   -0.01008000    1.01279000 
H                   1.81075000    0.20414000   -0.88424000 
O                   1.90202000   -0.45162000    2.20879000 
H                   3.17048000    0.35928000    0.97648000 


