%nprocshared=2 
%mem=2GB 
# 6-31g(d)  wb97x

tmpdir/M2_conf_2_118.gjf 

0 1
C                   0.00000000    0.00000000    0.00000000 
H                   1.08970000    0.00000000    0.00000000 
O                  -0.59732000    0.00000000   -1.06790000 
H                  -0.48384000    0.00323000    0.88155000 


