%nprocshared=2 
%mem=2GB 
# 6-31g(d)  wb97x

tmpdir/M2_conf_1_180.gjf 

0 1
C                   0.00000000    0.00000000    0.00000000 
C                   1.39330000    0.00000000    0.00000000 
H                  -0.48056000    0.00000000   -0.88141000 
H                  -0.56101000   -0.00503000    0.92998000 
H                   1.94709000    0.00491000    0.93789000 
H                   1.97454000   -0.00885000   -0.87380000 


