%nprocshared=2 
%mem=2GB 
# 6-31g(d)  wb97x

tmpdir/M2_conf_1_83.gjf 

0 1
H                   0.00000000    0.00000000    0.00000000 
C                   1.08840000    0.00000000    0.00000000 
C                   1.76530000    0.00000000    1.21267000 
O                   1.69483000   -0.00131000   -1.07011000 
H                   1.22715000   -0.01136000    2.15623000 
O                   2.99406000    0.02222000    1.23724000 


