%nprocshared=2 
%mem=2GB 
# 6-31g(d)  wb97x

tmpdir/M2_conf_2_21.gjf 

0 1
C                   0.00000000    0.00000000    0.00000000 
N                   1.45360000    0.00000000    0.00000000 
C                   2.20560000    0.00000000    1.23730000 
H                  -0.38597000   -0.03763000   -1.03108000 
H                  -0.35267000   -0.87796000    0.55438000 
H                  -0.40429000    0.90186000    0.50197000 
H                   1.80224000    0.79106000   -0.53740000 
H                   2.01464000    0.89860000    1.85549000 
H                   3.27812000   -0.04209000    1.01861000 
H                   1.94407000   -0.88341000    1.82983000 


