%nprocshared=2 
%mem=2GB 
# 6-31g(d)  wb97x

tmpdir/M2_conf_0_168.gjf 

0 1
C                   0.00000000    0.00000000    0.00000000 
C                   1.39300000    0.00000000    0.00000000 
C                   2.16078000    0.00000000    1.27076000 
H                  -0.44732000    0.00566000   -0.90150000 
H                  -0.58041000   -0.02778000    0.91451000 
H                   1.93963000   -0.00833000   -0.90043000 
O                   3.32018000   -0.41016000    1.29732000 
H                   1.76517000    0.34605000    2.13463000 


