%nprocshared=2 
%mem=2GB 
# 6-31g(d)  wb97x

tmpdir/M2_conf_1_97.gjf 

0 1
O                   0.00000000    0.00000000    0.00000000 
C                   1.22170000    0.00000000    0.00000000 
N                   1.99317000    0.00000000    1.13178000 
H                   1.78337000    0.01479000   -0.93134000 
H                   2.97387000    0.19534000    0.99706000 
H                   1.69376000    0.00775000    2.07570000 


