%nprocshared=2 
%mem=2GB 
# 6-31g(d)  wb97x

tmpdir/M2_conf_2_57.gjf 

0 1
C                   0.00000000    0.00000000    0.00000000 
C                   1.52840000    0.00000000    0.00000000 
H                  -0.44633000    0.00000000   -1.04997000 
H                  -0.36730000    0.85294000    0.60436000 
H                  -0.34638000   -0.91061000    0.50746000 
H                   2.04025000   -0.52396000   -0.69583000 
O                   2.15637000    0.59813000    0.87224000 


