%nprocshared=2 
%mem=2GB 
# 6-31g(d)  wb97x

tmpdir/M2_conf_2_167.gjf 

0 1
N                   0.00000000    0.00000000    0.00000000 
C                   1.34010000    0.00000000    0.00000000 
C                   1.99165000    0.00000000    1.33410000 
O                  -0.52897000    0.00126000   -1.03192000 
O                   1.97739000    0.00898000   -1.04977000 
O                   1.38221000    0.40161000    2.32427000 
H                   2.93471000   -0.33918000    1.46870000 


