%nprocshared=2 
%mem=2GB 
# 6-31g(d)  wb97x

tmpdir/M2_conf_0_62.gjf 

0 1
H                   0.00000000    0.00000000    0.00000000 
C                   1.10800000    0.00000000    0.00000000 
C                   1.58586000    0.00000000    1.43735000 
H                   1.53280000    0.85675000   -0.62224000 
H                   1.41723000   -0.94052000   -0.47592000 
H                   2.53477000    0.26483000    1.66127000 
O                   0.84228000   -0.36571000    2.34632000 


