%nprocshared=2 
%mem=2GB 
# 6-31g(d)  wb97x

tmpdir/M2_conf_1_139.gjf 

0 1
C                   0.00000000    0.00000000    0.00000000 
C                   1.39710000    0.00000000    0.00000000 
N                   2.17464000    0.00000000    1.16675000 
O                  -0.60656000    0.00635000   -1.06945000 
H                  -0.53614000   -0.00587000    0.93462000 
O                   2.03149000   -0.00131000   -1.07055000 
H                   3.17457000    0.03173000    1.03713000 
H                   1.95226000   -0.02949000    2.10203000 


