%nprocshared=2 
%mem=2GB 
# 6-31g(d)  wb97x

tmpdir/M2_conf_1_190.gjf 

0 1
C                   0.00000000    0.00000000    0.00000000 
N                   1.33520000    0.00000000    0.00000000 
C                   1.93879000    0.00000000    1.18717000 
O                  -0.67921000    0.00731000    1.02111000 
H                  -0.47440000   -0.00240000   -0.98046000 
H                   1.45057000   -0.00409000    2.07269000 
H                   3.02782000    0.02903000    1.15846000 


