%nprocshared=2 
%mem=2GB 
# 6-31g(d)  wb97x

tmpdir/M2_conf_2_66.gjf 

0 1
C                   0.00000000    0.00000000    0.00000000 
C                   1.51470000    0.00000000    0.00000000 
C                   2.19476000    0.00000000    1.21881000 
H                  -0.44633000   -0.63160000    0.83876000 
H                  -0.36730000   -0.31782000   -0.99586000 
H                  -0.34638000    1.03272000    0.14220000 
O                   2.14267000    0.04669000   -1.05659000 
H                   1.61707000   -0.03910000    2.13865000 
O                   3.41865000    0.03883000    1.24952000 


