%nprocshared=2 
%mem=2GB 
# 6-31g(d)  wb97x

tmpdir/M2_conf_2_60.gjf 

0 1
N                   0.00000000    0.00000000    0.00000000 
C                   1.45150000    0.00000000    0.00000000 
C                   2.03896000    0.00000000    1.39614000 
H                  -0.37868000    0.23113000   -0.91813000 
H                  -0.38025000   -0.89233000    0.31810000 
H                   1.86405000   -0.85293000   -0.57444000 
H                   1.78311000    0.91049000   -0.51744000 
H                   1.59611000    0.52396000    2.13780000 
O                   3.08647000   -0.59813000    1.63667000 


