%nprocshared=2 
%mem=2GB 
# 6-31g(d)  wb97x

tmpdir/M2_conf_0_22.gjf 

0 1
C                   0.00000000    0.00000000    0.00000000 
N                   1.45360000    0.00000000    0.00000000 
C                   2.16904000    0.00000000    1.26557000 
H                  -0.38597000    0.87404000    0.54828000 
H                  -0.35267000    0.03479000   -1.03776000 
H                  -0.40429000   -0.92201000    0.46392000 
H                   1.82434000   -0.78051000   -0.53024000 
H                   3.24576000    0.03714000    1.06156000 
H                   1.96665000   -0.92377000    1.84428000 
H                   1.88024000    0.87264000    1.87180000 


