%nprocshared=2 
%mem=2GB 
# 6-31g(d)  wb97x

tmpdir/M2_conf_2_40.gjf 

0 1
H                   0.00000000    0.00000000    0.00000000 
C                   1.09650000    0.00000000    0.00000000 
C                   1.63495000    0.00000000    1.42272000 
H                   1.46362000   -0.92950000   -0.55409000 
H                   1.43413000    0.92938000   -0.50147000 
H                   1.31565000    0.91313000    1.93687000 
H                   1.21206000   -0.86451000    1.97014000 
H                   2.78010000   -0.04087000    1.41499000 


