%nprocshared=2 
%mem=2GB 
# 6-31g(d)  wb97x

tmpdir/M2_conf_2_79.gjf 

0 1
C                   0.00000000    0.00000000    0.00000000 
H                   1.08810000    0.00000000    0.00000000 
O                  -0.60643000    0.00000000   -1.07011000 
H                  -0.49793000    0.00107000    0.87332000 


