%nprocshared=2 
%mem=2GB 
# 6-31g(d)  wb97x

tmpdir/M2_conf_0_106.gjf 

0 1
N                   0.00000000    0.00000000    0.00000000 
C                   1.41440000    0.00000000    0.00000000 
C                   1.97405000    0.00000000    1.27552000 
H                  -0.59206000   -0.30256000   -0.69122000 
H                  -0.42339000    0.17099000    0.89977000 
O                   2.06975000    0.03794000   -1.03959000 
H                   1.33794000   -0.03599000    2.15746000 
O                   3.19150000    0.03186000    1.39384000 


