%nprocshared=2 
%mem=2GB 
# 6-31g(d)  wb97x

tmpdir/M2_conf_1_187.gjf 

0 1
C                   0.00000000    0.00000000    0.00000000 
C                   1.39110000    0.00000000    0.00000000 
N                   2.12669000    0.00000000    1.11430000 
H                  -0.48056000   -0.00892000    0.88136000 
H                  -0.56101000    0.01461000   -0.92988000 
H                   1.94489000    0.00458000   -0.93790000 
O                   1.55573000   -0.00739000    2.12472000 


