%nprocshared=2 
%mem=2GB 
# 6-31g(d)  wb97x

tmpdir/M2_conf_1_174.gjf 

0 1
C                   0.00000000    0.00000000    0.00000000 
H                   1.08400000    0.00000000    0.00000000 
O                  -0.62746000    0.00000000   -1.05803000 
H                  -0.50997000    0.00181000    0.86472000 


