%nprocshared=2 
%mem=2GB 
# 6-31g(d)  wb97x

tmpdir/M2_conf_0_23.gjf 

0 1
C                   0.00000000    0.00000000    0.00000000 
N                   1.44790000    0.00000000    0.00000000 
C                   2.17590000    0.00000000    1.25839000 
H                  -0.42910000    0.89869000    0.48410000 
H                  -0.37015000   -0.88343000    0.53145000 
H                  -0.37051000   -0.04227000   -1.02997000 
H                   1.82010000    0.79113000   -0.52106000 
H                   1.87442000   -0.87943000    1.83978000 
H                   1.94083000    0.90024000    1.86133000 
H                   3.26122000   -0.03527000    1.07601000 


