%nprocshared=2 
%mem=2GB 
# 6-31g(d)  wb97x

tmpdir/M2_conf_0_132.gjf 

0 1
C                   0.00000000    0.00000000    0.00000000 
C                   1.50800000    0.00000000    0.00000000 
H                   1.92447000    0.00000000    1.01595000 
H                  -0.50962000   -0.75264000   -0.43017000 
O                  -0.64964000    0.92065000    0.52811000 
H                   1.89074000   -0.89162000   -0.50404000 
H                   1.92103000    0.87113000   -0.52612000 


