%nprocshared=2 
%mem=2GB 
# 6-31g(d)  wb97x

tmpdir/M2_conf_2_95.gjf 

0 1
C                   0.00000000    0.00000000    0.00000000 
C                   1.50260000    0.00000000    0.00000000 
O                   2.13894000    0.00000000    1.04289000 
H                  -0.55891000   -0.37277000   -0.75590000 
O                  -0.56415000    0.45877000    0.99106000 
H                   1.95589000    0.01415000   -0.97642000 


