%nprocshared=2 
%mem=2GB 
# 6-31g(d)  wb97x

tmpdir/M2_conf_0_179.gjf 

0 1
C                   0.00000000    0.00000000    0.00000000 
H                   1.08690000    0.00000000    0.00000000 
H                  -0.50650000    0.00000000   -0.86676000 
O                  -0.63348000    0.00586000    1.05011000 


