%nprocshared=2 
%mem=2GB 
# 6-31g(d)  wb97x

tmpdir/M2_conf_0_41.gjf 

0 1
H                   0.00000000    0.00000000    0.00000000 
C                   1.10870000    0.00000000    0.00000000 
C                   1.62848000    0.00000000    1.42964000 
H                   1.52527000    0.90080000   -0.56639000 
H                   1.44262000   -0.91646000   -0.50091000 
H                   1.20265000   -0.84878000    1.97587000 
H                   2.72884000   -0.12207000    1.41508000 
H                   1.33136000    0.97065000    1.96128000 


