%nprocshared=2 
%mem=2GB 
# 6-31g(d)  wb97x

tmpdir/M2_conf_1_38.gjf 

0 1
N                   0.00000000    0.00000000    0.00000000 
C                   1.45380000    0.00000000    0.00000000 
C                   2.05989000    0.00000000    1.39524000 
H                  -0.34861000   -0.80907000    0.50970000 
H                  -0.37107000    0.03227000   -0.94290000 
H                   1.80608000    0.89780000   -0.52169000 
H                   1.85798000   -0.88243000   -0.53589000 
H                   3.15235000   -0.03547000    1.32174000 
H                   1.78372000    0.94044000    1.91021000 
H                   1.69756000   -0.91214000    1.98669000 


