%nprocshared=2 
%mem=2GB 
# 6-31g(d)  wb97x

tmpdir/M2_conf_1_142.gjf 

0 1
N                   0.00000000    0.00000000    0.00000000 
C                   1.37440000    0.00000000    0.00000000 
H                  -0.66851000    0.00000000   -0.71890000 
H                  -0.35807000    0.00609000    0.94309000 
O                   2.02530000    0.00669000   -1.09492000 
H                   1.78673000   -0.00034000    0.97565000 


