%nprocshared=2 
%mem=2GB 
# 6-31g(d)  wb97x

tmpdir/M2_conf_1_116.gjf 

0 1
C                   0.00000000    0.00000000    0.00000000 
C                   1.39290000    0.00000000    0.00000000 
C                   2.07237000    0.00000000    1.21031000 
H                  -0.50988000   -0.02948000   -0.98744000 
O                  -0.62328000   -0.00629000    1.05979000 
H                   1.94494000    0.00802000   -0.93751000 
H                   3.16037000    0.00133000    1.20861000 
H                   1.58977000    0.00208000    2.09254000 


