%nprocshared=2 
%mem=2GB 
# 6-31g(d)  wb97x

tmpdir/M2_conf_2_170.gjf 

0 1
C                   0.00000000    0.00000000    0.00000000 
C                   1.40130000    0.00000000    0.00000000 
H                  -0.56839000    0.00000000   -0.91209000 
C                  -0.64816000   -0.02200000    1.23542000 
C                   2.21371000   -0.00543000    1.19631000 
H                   1.95245000   -0.02002000   -0.93995000 


