%nprocshared=2 
%mem=2GB 
# 6-31g(d)  wb97x

tmpdir/M2_conf_1_149.gjf 

0 1
N                   0.00000000    0.00000000    0.00000000 
C                   1.37360000    0.00000000    0.00000000 
N                   1.92236000    0.00000000    1.23081000 
H                  -0.66851000   -0.00025000   -0.71890000 
H                  -0.35807000    0.00642000    0.94309000 
O                   2.02450000    0.00650000   -1.09492000 
O                   3.07669000   -0.00910000    1.25883000 


