%nprocshared=2 
%mem=2GB 
# 6-31g(d)  wb97x

tmpdir/M2_conf_2_151.gjf 

0 1
N                   0.00000000    0.00000000    0.00000000 
C                   1.34590000    0.00000000    0.00000000 
O                  -0.52897000    0.00000000   -1.03192000 
O                   1.98319000    0.00770000   -1.04978000 
H                   1.82089000    0.00118000    0.96403000 


