%nprocshared=2 
%mem=2GB 
# 6-31g(d)  wb97x

tmpdir/M2_conf_2_88.gjf 

0 1
H                   0.00000000    0.00000000    0.00000000 
C                   1.08630000    0.00000000    0.00000000 
C                   1.75609000    0.00000000    1.22289000 
H                   1.60602000    0.00751000   -0.86050000 
H                   2.76727000   -0.01357000    1.23000000 
H                   1.14836000   -0.00793000    2.12493000 


