%nprocshared=2 
%mem=2GB 
# 6-31g(d)  wb97x

tmpdir/M2_conf_1_167.gjf 

0 1
N                   0.00000000    0.00000000    0.00000000 
C                   1.34010000    0.00000000    0.00000000 
C                   2.01299000    0.00000000    1.32347000 
O                  -0.52897000    0.00126000   -1.03192000 
O                   1.97739000    0.00898000   -1.04977000 
O                   1.41952000    0.40161000    2.32330000 
H                   2.95808000   -0.33918000    1.44291000 


