%nprocshared=2 
%mem=2GB 
# 6-31g(d)  wb97x

tmpdir/M2_conf_1_164.gjf 

0 1
H                   0.00000000    0.00000000    0.00000000 
C                   1.08350000    0.00000000    0.00000000 
C                   1.84137000    0.00000000    1.16880000 
H                   1.60499000   -0.02178000   -0.86047000 
H                   2.89371000   -0.03567000    1.13793000 
H                   1.39553000    0.02752000    2.14627000 


