%nprocshared=2 
%mem=2GB 
# 6-31g(d)  wb97x

tmpdir/M2_conf_1_166.gjf 

0 1
N                   0.00000000    0.00000000    0.00000000 
C                   1.34010000    0.00000000    0.00000000 
C                   2.07931000    0.00000000    1.18069000 
O                  -0.52897000    0.00756000    1.03189000 
H                   1.81509000   -0.00824000   -0.96400000 
H                   1.55266000    0.01400000    2.03817000 
H                   3.16218000   -0.03624000    1.18750000 


