%nprocshared=2 
%mem=2GB 
# 6-31g(d)  wb97x

tmpdir/M2_conf_0_16.gjf 

0 1
H                   0.00000000    0.00000000    0.00000000 
C                   1.09660000    0.00000000    0.00000000 
H                   1.43620000    0.00000000    1.05520000 
H                   1.46360000    0.91461000   -0.49226000 
H                   1.46407000   -0.92844000   -0.55544000 


