%nprocshared=2 
%mem=2GB 
# 6-31g(d)  wb97x

tmpdir/M2_conf_2_105.gjf 

0 1
N                   0.00000000    0.00000000    0.00000000 
C                   1.41440000    0.00000000    0.00000000 
C                   2.17314000    0.00000000    1.17014000 
H                  -0.59206000    0.32757000    0.67973000 
H                  -0.42339000   -0.20369000   -0.89294000 
H                   1.87686000   -0.03268000   -0.89540000 
H                   1.69364000    0.02460000    2.13476000 
H                   3.18239000   -0.02364000    1.11034000 


