%nprocshared=2 
%mem=2GB 
# 6-31g(d)  wb97x

tmpdir/M2_conf_2_106.gjf 

0 1
N                   0.00000000    0.00000000    0.00000000 
C                   1.41440000    0.00000000    0.00000000 
C                   2.02872000    0.00000000    1.25011000 
H                  -0.59206000   -0.30256000   -0.69122000 
H                  -0.42339000    0.17099000    0.89977000 
O                   2.06975000    0.03794000   -1.03959000 
H                   1.43137000   -0.03599000    2.15875000 
O                   3.25015000    0.03186000    1.31564000 


