%nprocshared=2 
%mem=2GB 
# 6-31g(d)  wb97x

tmpdir/M2_conf_1_59.gjf 

0 1
N                   0.00000000    0.00000000    0.00000000 
C                   1.45150000    0.00000000    0.00000000 
H                   1.81746000    0.00000000    1.03575000 
H                  -0.37868000    0.68403000    0.65459000 
H                  -0.38025000    0.16418000   -0.93300000 
H                   1.86405000    0.92077000   -0.45787000 
H                   1.88047000   -0.87733000   -0.49859000 


