%nprocshared=2 
%mem=2GB 
# 6-31g(d)  wb97x

tmpdir/M2_conf_1_33.gjf 

0 1
C                   0.00000000    0.00000000    0.00000000 
H                   1.09660000    0.00000000    0.00000000 
H                  -0.36712000    0.00000000   -1.08212000 
H                  -0.33763000   -0.90672000    0.54137000 
H                  -0.36665000    0.89183000    0.53164000 


