%nprocshared=2 
%mem=2GB 
# 6-31g(d)  wb97x

tmpdir/M2_conf_1_104.gjf 

0 1
C                   0.00000000    0.00000000    0.00000000 
C                   1.39160000    0.00000000    0.00000000 
H                  -0.50988000    0.00000000   -0.98788000 
C                  -0.70697000   -0.04300000    1.20135000 
H                   1.94364000    0.03599000   -0.93686000 
C                   2.06938000   -0.03614000    1.21072000 


