%nprocshared=2 
%mem=2GB 
# 6-31g(d)  wb97x

tmpdir/M2_conf_0_120.gjf 

0 1
C                   0.00000000    0.00000000    0.00000000 
C                   1.38800000    0.00000000    0.00000000 
H                   1.94494000    0.00000000    0.93465000 
H                  -0.49237000   -0.00123000   -0.87991000 
H                  -0.54843000   -0.00672000    0.93964000 
H                   1.92104000   -0.00327000   -0.85270000 


