%nprocshared=2 
%mem=2GB 
# 6-31g(d)  wb97x

tmpdir/M2_conf_2_72.gjf 

0 1
C                   0.00000000    0.00000000    0.00000000 
C                   1.39570000    0.00000000    0.00000000 
C                   2.11498000    0.00000000    1.18861000 
H                  -0.55553000   -0.03481000   -0.94472000 
O                  -0.59275000   -0.00696000    1.07773000 
H                   1.91749000    0.00399000   -0.95345000 
H                   3.20190000   -0.03703000    1.14815000 
H                   1.63368000   -0.00381000    2.07803000 


