%nprocshared=2 
%mem=2GB 
# 6-31g(d)  wb97x

tmpdir/M2_conf_2_152.gjf 

0 1
C                   0.00000000    0.00000000    0.00000000 
N                   1.33060000    0.00000000    0.00000000 
C                   1.93211000    0.00000000    1.19752000 
H                  -0.55172000   -0.00194000   -0.92809000 
H                  -0.62795000    0.00744000    0.85295000 
O                   1.28006000   -0.00770000    2.23820000 
H                   3.00677000   -0.00118000    1.18927000 


