%nprocshared=2 
%mem=2GB 
# 6-31g(d)  wb97x

tmpdir/M2_conf_1_181.gjf 

0 1
C                   0.00000000    0.00000000    0.00000000 
C                   1.38680000    0.00000000    0.00000000 
H                   1.94732000    0.00000000    0.93029000 
O                  -0.59279000   -0.00715000   -1.07782000 
H                  -0.55122000    0.00440000    0.93465000 
O                   1.97387000   -0.00583000   -1.07674000 


