%nprocshared=2 
%mem=2GB 
# 6-31g(d)  wb97x

tmpdir/M2_conf_2_34.gjf 

0 1
C                   0.00000000    0.00000000    0.00000000 
H                   1.10160000    0.00000000    0.00000000 
H                  -0.41657000    0.00000000   -1.06406000 
H                  -0.33392000    0.91187000    0.50921000 
H                  -0.35794000   -0.88153000    0.55427000 


