%nprocshared=2 
%mem=2GB 
# 6-31g(d)  wb97x

tmpdir/M2_conf_2_112.gjf 

0 1
H                   0.00000000    0.00000000    0.00000000 
C                   1.07750000    0.00000000    0.00000000 
C                   1.77879000    0.00000000    1.20834000 
O                   1.70337000   -0.00037000   -1.05828000 
O                   3.02312000   -0.00803000    1.21964000 
H                   1.28052000    0.00581000    2.19135000 


