%nprocshared=2 
%mem=2GB 
# 6-31g(d)  wb97x

tmpdir/M2_conf_0_110.gjf 

0 1
C                   0.00000000    0.00000000    0.00000000 
C                   1.39460000    0.00000000    0.00000000 
H                   1.94520000    0.00000000    0.92620000 
H                  -0.59256000   -0.02495000    0.94028000 
H                  -0.51114000   -0.00971000   -0.86908000 
H                   1.89351000   -0.00031000   -0.87967000 


