%nprocshared=2 
%mem=2GB 
# 6-31g(d)  wb97x

tmpdir/M2_conf_1_124.gjf 

0 1
C                   0.00000000    0.00000000    0.00000000 
C                   1.41740000    0.00000000    0.00000000 
H                  -0.47334000    0.00000000   -0.88723000 
H                  -0.56987000    0.00146000    0.93104000 
H                   1.93295000   -0.00091000   -0.87002000 
H                   1.90674000    0.00224000    0.98750000 


