%nprocshared=2 
%mem=2GB 
# 6-31g(d)  wb97x

tmpdir/M2_conf_2_67.gjf 

0 1
C                   0.00000000    0.00000000    0.00000000 
C                   1.51470000    0.00000000    0.00000000 
C                   2.26038000    0.00000000    1.17909000 
H                  -0.44633000    0.59380000   -0.86593000 
H                  -0.36730000    0.36147000    0.98086000 
H                  -0.34638000   -1.03799000   -0.09647000 
H                   2.02655000   -0.03845000   -0.87019000 
H                   1.74786000    0.04642000    2.13815000 
H                   3.26440000   -0.04340000    1.15266000 


