%nprocshared=2 
%mem=2GB 
# 6-31g(d)  wb97x

tmpdir/M2_conf_0_138.gjf 

0 1
C                   0.00000000    0.00000000    0.00000000 
C                   1.39710000    0.00000000    0.00000000 
C                   2.10413000    0.00000000    1.22166000 
O                  -0.60656000   -0.00784000    1.06944000 
H                  -0.53614000    0.00701000   -0.93462000 
H                   1.99719000    0.00113000   -0.92440000 
H                   1.57333000    0.00093000    2.07575000 
H                   3.19540000    0.00049000    1.24852000 


