%nprocshared=2 
%mem=2GB 
# 6-31g(d)  wb97x

tmpdir/M2_conf_2_111.gjf 

0 1
C                   0.00000000    0.00000000    0.00000000 
C                   1.39460000    0.00000000    0.00000000 
C                   2.08150000    0.00000000    1.21657000 
H                  -0.59256000    0.02528000   -0.94027000 
H                  -0.51114000    0.00940000    0.86909000 
H                   1.94309000    0.00032000   -0.92745000 
O                   1.46121000    0.00785000    2.29533000 
H                   3.18149000   -0.00549000    1.28463000 


