%nprocshared=2 
%mem=2GB 
# 6-31g(d)  wb97x

tmpdir/M2_conf_0_157.gjf 

0 1
N                   0.00000000    0.00000000    0.00000000 
C                   1.32510000    0.00000000    0.00000000 
H                   1.80914000    0.00000000    0.97596000 
H                  -0.40500000   -0.00937000   -0.85210000 
H                   1.87954000   -0.00484000   -0.83989000 


