%nprocshared=2 
%mem=2GB 
# 6-31g(d)  wb97x

tmpdir/M2_conf_0_169.gjf 

0 1
C                   0.00000000    0.00000000    0.00000000 
C                   1.39390000    0.00000000    0.00000000 
H                  -0.54367000    0.00000000   -0.92704000 
H                  -0.46974000    0.01563000    0.89534000 
H                   1.94740000   -0.00554000   -0.93330000 
H                   1.87769000    0.00691000    0.87961000 


