%nprocshared=2 
%mem=2GB 
# 6-31g(d)  wb97x

tmpdir/M2_conf_0_63.gjf 

0 1
H                   0.00000000    0.00000000    0.00000000 
C                   1.09850000    0.00000000    0.00000000 
C                   1.57837000    0.00000000    1.43668000 
H                   1.44290000   -0.91713000   -0.58473000 
H                   1.41041000    0.94323000   -0.49060000 
H                   1.62783000   -0.86290000    1.95981000 
O                   1.87015000    1.05308000    2.00129000 


