%nprocshared=2 
%mem=2GB 
# 6-31g(d)  wb97x

tmpdir/M2_conf_1_178.gjf 

0 1
H                   0.00000000    0.00000000    0.00000000 
C                   1.08510000    0.00000000    0.00000000 
C                   1.80970000    0.00000000    1.18244000 
O                   1.71256000   -0.00222000   -1.05803000 
H                   1.29647000   -0.00442000    2.13962000 
O                   3.03453000   -0.00075000    1.12039000 


