%nprocshared=2 
%mem=2GB 
# 6-31g(d)  wb97x

tmpdir/M2_conf_1_126.gjf 

0 1
C                   0.00000000    0.00000000    0.00000000 
C                   1.38920000    0.00000000    0.00000000 
C                   2.06271000    0.00000000    1.24045000 
O                  -0.64859000    0.00616000    1.03754000 
H                  -0.52348000   -0.00200000   -0.95379000 
H                   1.94241000   -0.00148000   -0.94104000 
H                   1.54412000    0.00091000    2.10866000 
H                   3.16404000   -0.00224000    1.19930000 


