%nprocshared=2 
%mem=2GB 
# 6-31g(d)  wb97x

tmpdir/M2_conf_2_125.gjf 

0 1
C                   0.00000000    0.00000000    0.00000000 
C                   1.38920000    0.00000000    0.00000000 
C                   2.12374000    0.00000000    1.31701000 
O                  -0.64859000   -0.00453000   -1.03755000 
H                  -0.52348000    0.00050000    0.95379000 
O                   1.97494000    0.00172000   -1.09792000 
H                   1.41568000    0.00483000    2.15016000 
H                   2.76562000    0.88349000    1.43120000 
H                   2.75758000   -0.88896000    1.43642000 


