%nprocshared=2 
%mem=2GB 
# 6-31g(d)  wb97x

tmpdir/M2_conf_0_153.gjf 

0 1
N                   0.00000000    0.00000000    0.00000000 
C                   1.37370000    0.00000000    0.00000000 
H                  -0.40500000    0.00000000   -0.85216000 
H                   1.85058000   -0.01077000    0.97942000 
H                   1.92814000    0.00440000   -0.83989000 


