%nprocshared=2 
%mem=2GB 
# 6-31g(d)  wb97x

tmpdir/M2_conf_1_143.gjf 

0 1
C                   0.00000000    0.00000000    0.00000000 
N                   1.40210000    0.00000000    0.00000000 
H                   1.85222000    0.00000000    0.90281000 
H                  -0.55065000   -0.02975000   -0.84772000 
O                  -0.55253000    0.04047000    1.11428000 
H                   2.05706000    0.00479000   -0.70431000 


