%nprocshared=2 
%mem=2GB 
# 6-31g(d)  wb97x

tmpdir/M2_conf_1_117.gjf 

0 1
H                   0.00000000    0.00000000    0.00000000 
C                   1.08800000    0.00000000    0.00000000 
C                   1.78661000    0.00000000    1.19937000 
H                   1.59960000   -0.00758000   -0.86884000 
H                   1.23345000    0.00679000    2.13623000 
H                   2.79167000   -0.00952000    1.23081000 


