%nprocshared=2 
%mem=2GB 
# 6-31g(d)  wb97x

tmpdir/M2_conf_1_145.gjf 

0 1
H                   0.00000000    0.00000000    0.00000000 
N                   1.00880000    0.00000000    0.00000000 
C                   1.54617000    0.00000000    1.26412000 
H                   1.44346000    0.00476000   -0.88022000 
O                   2.80840000    0.01395000    1.43483000 
H                   0.80961000   -0.00664000    2.02527000 


