%nprocshared=2 
%mem=2GB 
# 6-31g(d)  wb97x

tmpdir/M2_conf_0_144.gjf 

0 1
C                   0.00000000    0.00000000    0.00000000 
N                   1.40210000    0.00000000    0.00000000 
C                   2.25286000    0.00000000    1.07841000 
H                  -0.55065000    0.03552000    0.84750000 
O                  -0.55253000   -0.04805000   -1.11397000 
H                   1.84875000   -0.00616000   -0.90451000 
O                   1.79639000   -0.00669000    2.26760000 
H                   3.27423000    0.00034000    0.79785000 


