%nprocshared=2 
%mem=2GB 
# 6-31g(d)  wb97x

tmpdir/M2_conf_0_167.gjf 

0 1
N                   0.00000000    0.00000000    0.00000000 
C                   1.34010000    0.00000000    0.00000000 
C                   2.03735000    0.00000000    1.31079000 
O                  -0.52897000    0.00126000   -1.03192000 
O                   1.97739000    0.00898000   -1.04977000 
O                   1.46249000    0.40161000    2.32143000 
H                   2.98450000   -0.33918000    1.41273000 


