%nprocshared=2 
%mem=2GB 
# 6-31g(d)  wb97x

tmpdir/M2_conf_0_55.gjf 

0 1
C                   0.00000000    0.00000000    0.00000000 
H                   1.09890000    0.00000000    0.00000000 
H                  -0.42480000    0.00000000   -1.05887000 
H                  -0.30923000    0.93777000    0.48133000 
H                  -0.36349000   -0.83703000    0.60792000 


