%nprocshared=2 
%mem=2GB 
# 6-31g(d)  wb97x

tmpdir/M2_conf_2_86.gjf 

0 1
C                   0.00000000    0.00000000    0.00000000 
C                   1.38880000    0.00000000    0.00000000 
H                   1.93654000    0.00000000    0.93810000 
O                  -0.62926000   -0.01420000   -1.05675000 
H                  -0.53909000    0.01155000    0.94544000 
O                   2.00915000    0.00945000   -1.06114000 


