%nprocshared=2 
%mem=2GB 
# 6-31g(d)  wb97x

tmpdir/M2_conf_0_166.gjf 

0 1
N                   0.00000000    0.00000000    0.00000000 
C                   1.34010000    0.00000000    0.00000000 
C                   2.05442000    0.00000000    1.19591000 
O                  -0.52897000    0.00756000    1.03189000 
H                   1.81509000   -0.00824000   -0.96400000 
H                   1.50993000    0.01400000    2.04218000 
H                   3.13691000   -0.03624000    1.22540000 


