%nprocshared=2 
%mem=2GB 
# 6-31g(d)  wb97x

tmpdir/M2_conf_0_89.gjf 

0 1
C                   0.00000000    0.00000000    0.00000000 
C                   1.51280000    0.00000000    0.00000000 
H                  -0.55891000    0.00000000   -0.84282000 
C                  -0.63993000   -0.03070000    1.23840000 
C                   2.22840000   -0.52488000    1.06435000 
H                   1.96609000    0.44470000   -0.86939000 


