%nprocshared=2 
%mem=2GB 
# 6-31g(d)  wb97x

tmpdir/M2_conf_1_148.gjf 

0 1
N                   0.00000000    0.00000000    0.00000000 
C                   1.37360000    0.00000000    0.00000000 
N                   2.04492000    0.00000000    1.14883000 
H                  -0.66851000    0.00439000    0.71889000 
H                  -0.35807000   -0.01202000   -0.94304000 
H                   1.78593000   -0.00579000   -0.97563000 
H                   2.98180000    0.00175000    1.09711000 


