%nprocshared=2 
%mem=2GB 
# 6-31g(d)  wb97x

tmpdir/M2_conf_2_92.gjf 

0 1
C                   0.00000000    0.00000000    0.00000000 
C                   1.39430000    0.00000000    0.00000000 
C                   2.11634000    0.00000000    1.31775000 
H                  -0.50735000    0.00045000   -0.86788000 
H                  -0.51934000    0.00783000    0.95408000 
H                   1.88629000   -0.02082000   -0.88331000 
O                   1.58687000   -0.43950000    2.32723000 
H                   3.10603000    0.42302000    1.29234000 


