%nprocshared=2 
%mem=2GB 
# 6-31g(d)  wb97x

tmpdir/M2_conf_1_175.gjf 

0 1
C                   0.00000000    0.00000000    0.00000000 
C                   1.39500000    0.00000000    0.00000000 
C                  -0.67240000    0.00000000   -1.22259000 
H                  -0.55122000   -0.00196000    0.93466000 
H                   1.94297000   -0.00622000    0.93771000 
C                   2.06091000    0.00149000   -1.22136000 


