%nprocshared=2 
%mem=2GB 
# 6-31g(d)  wb97x

tmpdir/M2_conf_2_8.gjf 

0 1
H                   0.00000000    0.00000000    0.00000000 
C                   1.09650000    0.00000000    0.00000000 
N                   1.57567000    0.00000000    1.37521000 
H                   1.43730000    0.90271000   -0.54261000 
H                   1.46404000   -0.89469000   -0.52722000 
H                   2.59590000   -0.03165000    1.38785000 
H                   1.21506000    0.79175000    1.90054000 


