%nprocshared=2 
%mem=2GB 
# 6-31g(d)  wb97x

tmpdir/M2_conf_2_122.gjf 

0 1
H                   0.00000000    0.00000000    0.00000000 
C                   1.08800000    0.00000000    0.00000000 
C                   1.76171000    0.00000000    1.21490000 
O                   1.68532000   -0.00391000   -1.06789000 
H                   1.20702000   -0.00049000    2.15507000 
O                   3.00594000    0.00230000    1.19471000 


