%nprocshared=2 
%mem=2GB 
# 6-31g(d)  wb97x

tmpdir/M2_conf_1_54.gjf 

0 1
C                   0.00000000    0.00000000    0.00000000 
N                   1.45780000    0.00000000    0.00000000 
C                   2.19384000    0.00000000    1.25104000 
H                  -0.38255000    0.05098000   -1.03125000 
H                  -0.35503000    0.86740000    0.56718000 
H                  -0.39552000   -0.91148000    0.48853000 
H                   1.80505000   -0.78718000   -0.54731000 
H                   1.87683000   -0.82748000    1.91620000 
H                   3.25095000   -0.18149000    1.01384000 
H                   2.11932000    0.95052000    1.79258000 


