%nprocshared=2 
%mem=2GB 
# 6-31g(d)  wb97x

tmpdir/M2_conf_0_114.gjf 

0 1
C                   0.00000000    0.00000000    0.00000000 
C                   1.39440000    0.00000000    0.00000000 
H                  -0.49237000    0.00000000   -0.87991000 
H                  -0.54843000   -0.00804000    0.93963000 
H                   1.92552000   -0.00133000    0.94955000 
H                   1.92744000   -0.00208000   -0.85270000 


