%nprocshared=2 
%mem=2GB 
# 6-31g(d)  wb97x

tmpdir/M2_conf_0_171.gjf 

0 1
C                   0.00000000    0.00000000    0.00000000 
C                   1.48470000    0.00000000    0.00000000 
C                   2.20083000    0.00000000    1.19751000 
H                  -0.46558000   -0.35764000    0.87463000 
O                  -0.66004000    0.40033000   -0.95515000 
H                   2.01951000   -0.01558000   -0.85806000 
H                   1.68391000    0.00554000    2.15156000 
H                   3.20405000   -0.00691000    1.16126000 


