%nprocshared=2 
%mem=2GB 
# 6-31g(d)  wb97x

tmpdir/M2_conf_1_171.gjf 

0 1
C                   0.00000000    0.00000000    0.00000000 
C                   1.48470000    0.00000000    0.00000000 
C                   2.23604000    0.00000000    1.17574000 
H                  -0.46558000   -0.35764000    0.87463000 
O                  -0.66004000    0.40033000   -0.95515000 
H                   2.01951000   -0.01558000   -0.85806000 
H                   1.74765000    0.00554000    2.14470000 
H                   3.23774000   -0.00691000    1.10974000 


