%nprocshared=2 
%mem=2GB 
# 6-31g(d)  wb97x

tmpdir/M2_conf_0_102.gjf 

0 1
H                   0.00000000    0.00000000    0.00000000 
N                   1.00900000    0.00000000    0.00000000 
C                   1.58474000    0.00000000    1.29192000 
H                   1.42824000   -0.16814000   -0.84607000 
O                   2.77790000    0.23136000    1.47767000 
H                   0.96897000   -0.16728000    2.07263000 


