%nprocshared=2 
%mem=2GB 
# 6-31g(d)  wb97x

tmpdir/M2_conf_0_68.gjf 

0 1
C                   0.00000000    0.00000000    0.00000000 
C                   1.39570000    0.00000000    0.00000000 
C                   2.08818000    0.00000000    1.21110000 
H                  -0.52179000    0.00216000   -0.95346000 
O                  -0.62316000   -0.00681000    1.05452000 
H                   1.95123000    0.04091000   -0.94447000 
H                   3.17656000   -0.00529000    1.20693000 
H                   1.59363000    0.00588000    2.08632000 


