%nprocshared=2 
%mem=2GB 
# 6-31g(d)  wb97x

tmpdir/M2_conf_0_31.gjf 

0 1
H                   0.00000000    0.00000000    0.00000000 
C                   1.10730000    0.00000000    0.00000000 
H                   1.43943000    0.00000000    1.04384000 
H                   1.54829000   -0.89363000   -0.54955000 
H                   1.44834000    0.92882000   -0.46999000 


