%nprocshared=2 
%mem=2GB 
# 6-31g(d)  wb97x

tmpdir/M2_conf_0_117.gjf 

0 1
H                   0.00000000    0.00000000    0.00000000 
C                   1.08800000    0.00000000    0.00000000 
C                   1.76155000    0.00000000    1.21362000 
H                   1.59960000   -0.00758000   -0.86884000 
H                   1.18905000    0.00679000    2.13879000 
H                   2.76574000   -0.00952000    1.26592000 


