%nprocshared=2 
%mem=2GB 
# 6-31g(d)  wb97x

tmpdir/M2_conf_2_149.gjf 

0 1
N                   0.00000000    0.00000000    0.00000000 
C                   1.37360000    0.00000000    0.00000000 
N                   1.92859000    0.00000000    1.22801000 
H                  -0.66851000   -0.00025000   -0.71890000 
H                  -0.35807000    0.00642000    0.94309000 
O                   2.02450000    0.00650000   -1.09492000 
O                   3.08304000   -0.00910000    1.25020000 


