%nprocshared=2 
%mem=2GB 
# 6-31g(d)  wb97x

tmpdir/M2_conf_2_56.gjf 

0 1
C                   0.00000000    0.00000000    0.00000000 
H                   1.09890000    0.00000000    0.00000000 
H                  -0.34440000    0.00000000   -1.08768000 
H                  -0.31191000   -0.92075000    0.53160000 
H                  -0.34575000    0.87741000    0.55940000 


