%nprocshared=2 
%mem=2GB 
# 6-31g(d)  wb97x

tmpdir/M2_conf_2_48.gjf 

0 1
H                   0.00000000    0.00000000    0.00000000 
C                   1.09550000    0.00000000    0.00000000 
H                   1.42936000    0.00000000    1.05566000 
H                   1.46523000   -0.90975000   -0.49807000 
H                   1.46687000    0.93405000   -0.55020000 


