%nprocshared=2 
%mem=2GB 
# 6-31g(d)  wb97x

tmpdir/M2_conf_0_9.gjf 

0 1
C                   0.00000000    0.00000000    0.00000000 
C                   1.52180000    0.00000000    0.00000000 
N                   1.97134000    0.00000000    1.38518000 
H                  -0.36533000   -0.03518000   -1.03336000 
H                  -0.35888000    0.94560000    0.45367000 
H                  -0.40033000   -0.91042000    0.56250000 
H                   1.88147000   -0.88229000   -0.56360000 
H                   1.88764000    0.89877000   -0.51057000 
H                   1.59569000   -0.81448000    1.87257000 
H                   2.98422000    0.04790000    1.45326000 


