%nprocshared=2 
%mem=2GB 
# 6-31g(d)  wb97x

tmpdir/M2_conf_2_17.gjf 

0 1
H                   0.00000000    0.00000000    0.00000000 
C                   1.09660000    0.00000000    0.00000000 
N                   1.57991000    0.00000000    1.37090000 
H                   1.46360000   -0.89190000   -0.53231000 
H                   1.43491000    0.90588000   -0.54194000 
H                   1.22805000    0.79784000    1.88805000 
H                   2.59724000   -0.03204000    1.38192000 


