%nprocshared=2 
%mem=2GB 
# 6-31g(d)  wb97x

tmpdir/M2_conf_0_188.gjf 

0 1
H                   0.00000000    0.00000000    0.00000000 
C                   1.08920000    0.00000000    0.00000000 
N                   1.68705000    0.00000000    1.19387000 
O                   1.71275000   -0.00479000   -1.05604000 
O                   2.84760000    0.00252000    1.20400000 


