%nprocshared=2 
%mem=2GB 
# 6-31g(d)  wb97x

tmpdir/M2_conf_2_194.gjf 

0 1
N                   0.00000000    0.00000000    0.00000000 
C                   1.33180000    0.00000000    0.00000000 
H                   1.79822000    0.00000000    0.98494000 
H                  -0.42589000   -0.02454000   -0.83190000 
H                   1.89989000   -0.02058000   -0.83629000 


