%nprocshared=2 
%mem=2GB 
# 6-31g(d)  wb97x

tmpdir/M2_conf_2_6.gjf 

0 1
H                   0.00000000    0.00000000    0.00000000 
C                   1.10700000    0.00000000    0.00000000 
N                   1.65607000    0.00000000    1.34883000 
H                   1.44456000   -0.90952000   -0.51102000 
H                   1.46492000    0.88487000   -0.54993000 
H                   1.38425000    0.85556000    1.83480000 
H                   1.38537000   -0.83162000    1.86651000 


