%nprocshared=2 
%mem=2GB 
# 6-31g(d)  wb97x

tmpdir/M2_conf_0_176.gjf 

0 1
C                   0.00000000    0.00000000    0.00000000 
C                   1.39530000    0.00000000    0.00000000 
H                   1.95838000    0.00000000    0.92757000 
H                  -0.54367000   -0.00550000    0.92702000 
H                  -0.46974000   -0.01031000   -0.89541000 
H                   1.87909000   -0.00184000   -0.87964000 


