%nprocshared=2 
%mem=2GB 
# 6-31g(d)  wb97x

tmpdir/M2_conf_0_50.gjf 

0 1
H                   0.00000000    0.00000000    0.00000000 
C                   1.10720000    0.00000000    0.00000000 
N                   1.63414000    0.00000000    1.35923000 
H                   1.46750000   -0.88478000   -0.54752000 
H                   1.44409000    0.90968000   -0.50903000 
H                   1.35382000   -0.85425000    1.84034000 
H                   1.35556000    0.83129000    1.87326000 


