%nprocshared=2 
%mem=2GB 
# 6-31g(d)  wb97x

tmpdir/M2_conf_1_173.gjf 

0 1
C                   0.00000000    0.00000000    0.00000000 
C                   1.39530000    0.00000000    0.00000000 
C                   2.05412000    0.00000000    1.23178000 
H                  -0.55350000   -0.01075000   -0.93325000 
H                  -0.48379000    0.00829000    0.87960000 
H                   1.93897000   -0.01618000   -0.92690000 
O                   1.46197000    0.01399000    2.36073000 
H                   3.14245000   -0.03675000    1.27472000 


