%nprocshared=2 
%mem=2GB 
# 6-31g(d)  wb97x

tmpdir/M2_conf_0_121.gjf 

0 1
C                   0.00000000    0.00000000    0.00000000 
C                   1.38800000    0.00000000    0.00000000 
C                   2.05640000    0.00000000    1.21783000 
H                  -0.49237000   -0.00215000    0.87991000 
H                  -0.54843000    0.01050000   -0.93960000 
H                   1.91912000    0.00365000   -0.94955000 
H                   3.14752000    0.00411000    1.25003000 
O                   1.37576000   -0.00652000    2.25957000 


