%nprocshared=2 
%mem=2GB 
# 6-31g(d)  wb97x

tmpdir/M2_conf_1_150.gjf 

0 1
N                   0.00000000    0.00000000    0.00000000 
C                   1.33060000    0.00000000    0.00000000 
N                   2.11602000    0.00000000    1.09505000 
H                  -0.42802000    0.00729000    0.83496000 
H                   1.88232000   -0.00632000   -0.92807000 
O                   1.55754000    0.01565000    2.10559000 


