%nprocshared=2 
%mem=2GB 
# 6-31g(d)  wb97x

tmpdir/M2_conf_0_191.gjf 

0 1
C                   0.00000000    0.00000000    0.00000000 
H                   1.08350000    0.00000000    0.00000000 
H                  -0.51140000    0.00000000   -0.87235000 
O                  -0.54745000   -0.02713000    1.15106000 


