%nprocshared=2 
%mem=2GB 
# 6-31g(d)  wb97x

tmpdir/M2_conf_1_71.gjf 

0 1
C                   0.00000000    0.00000000    0.00000000 
C                   1.39570000    0.00000000    0.00000000 
H                   1.92297000    0.00000000    0.95044000 
H                  -0.55553000    0.03876000    0.94456000 
O                  -0.59275000    0.00245000   -1.07775000 
O                   2.01886000   -0.00442000   -1.05453000 


