%nprocshared=2 
%mem=2GB 
# 6-31g(d)  wb97x

tmpdir/M2_conf_1_12.gjf 

0 1
C                   0.00000000    0.00000000    0.00000000 
N                   1.46200000    0.00000000    0.00000000 
H                  -0.38597000    0.00000000   -1.03177000 
H                  -0.35267000   -0.89760000    0.52199000 
H                  -0.40429000    0.88295000    0.53453000 
H                   1.83274000   -0.03441000    0.94295000 
H                   1.81064000    0.81013000   -0.50819000 


