%nprocshared=2 
%mem=2GB 
# 6-31g(d)  wb97x

tmpdir/M2_conf_1_140.gjf 

0 1
C                   0.00000000    0.00000000    0.00000000 
C                   1.41150000    0.00000000    0.00000000 
N                   2.02328000    0.00000000    1.26159000 
H                  -0.47334000    0.00201000   -0.88723000 
H                  -0.56987000   -0.00065000    0.93104000 
H                   1.92705000    0.00106000   -0.87002000 
H                   1.40482000   -0.03283000    2.05790000 
H                   2.94222000    0.03035000    1.54388000 


