%nprocshared=2 
%mem=2GB 
# 6-31g(d)  wb97x

tmpdir/M2_conf_2_185.gjf 

0 1
C                   0.00000000    0.00000000    0.00000000 
N                   1.34350000    0.00000000    0.00000000 
O                  -0.67921000    0.00000000   -1.02114000 
H                  -0.47440000   -0.00462000    0.98045000 
O                   1.87221000    0.00739000   -1.03315000 


