%nprocshared=2 
%mem=2GB 
# 6-31g(d)  wb97x

tmpdir/M2_conf_1_45.gjf 

0 1
C                   0.00000000    0.00000000    0.00000000 
C                   1.52120000    0.00000000    0.00000000 
H                   1.92359000    0.00000000    1.01892000 
H                  -0.40018000    0.03679000   -1.06970000 
H                  -0.36512000   -0.91493000    0.48157000 
H                  -0.36041000    0.86242000    0.59628000 
H                   1.88350000   -0.92412000   -0.49054000 
H                   1.91932000    0.93122000   -0.53612000 


