%nprocshared=2 
%mem=2GB 
# 6-31g(d)  wb97x

tmpdir/M2_conf_1_25.gjf 

0 1
C                   0.00000000    0.00000000    0.00000000 
H                   1.09650000    0.00000000    0.00000000 
H                  -0.38455000    0.00000000   -1.07106000 
H                  -0.34475000    0.87818000    0.57971000 
H                  -0.34050000   -0.90436000    0.51584000 


