%nprocshared=2 
%mem=2GB 
# 6-31g(d)  wb97x

tmpdir/M2_conf_1_36.gjf 

0 1
N                   0.00000000    0.00000000    0.00000000 
C                   1.45380000    0.00000000    0.00000000 
H                   1.79591000    0.00000000    1.04176000 
H                  -0.34861000   -0.03421000   -0.95562000 
H                  -0.37107000    0.79904000    0.50163000 
H                   1.85798000    0.90669000   -0.49373000 
H                   1.83941000   -0.89175000   -0.51818000 


