%nprocshared=2 
%mem=2GB 
# 6-31g(d)  wb97x

tmpdir/M2_conf_2_102.gjf 

0 1
H                   0.00000000    0.00000000    0.00000000 
N                   1.00900000    0.00000000    0.00000000 
C                   1.57435000    0.00000000    1.29650000 
H                   1.42824000   -0.16814000   -0.84607000 
O                   2.76598000    0.23136000    1.49183000 
H                   0.95233000   -0.16728000    2.07225000 


