%nprocshared=2 
%mem=2GB 
# 6-31g(d)  wb97x

tmpdir/M2_conf_0_18.gjf 

0 1
H                   0.00000000    0.00000000    0.00000000 
C                   1.10850000    0.00000000    0.00000000 
N                   1.64054000    0.00000000    1.35273000 
H                   1.46515000    0.88264000   -0.55432000 
H                   1.44318000   -0.91140000   -0.50978000 
H                   1.34918000   -0.82448000    1.86571000 
H                   1.36813000    0.85428000    1.83451000 


