%nprocshared=2 
%mem=2GB 
# 6-31g(d)  wb97x

tmpdir/M2_conf_0_77.gjf 

0 1
C                   0.00000000    0.00000000    0.00000000 
C                   1.38930000    0.00000000    0.00000000 
C                   2.08336000    0.00000000    1.21239000 
H                  -0.51398000    0.00380000    0.86978000 
H                  -0.55540000   -0.00016000   -0.93428000 
H                   1.91742000   -0.04118000   -0.95068000 
O                   1.44849000   -0.01162000    2.26488000 
H                   3.16864000   -0.01297000    1.28376000 


