%nprocshared=2 
%mem=2GB 
# 6-31g(d)  wb97x

tmpdir/M2_conf_0_20.gjf 

0 1
N                   0.00000000    0.00000000    0.00000000 
C                   1.45630000    0.00000000    0.00000000 
H                  -0.34861000    0.00000000   -0.95624000 
H                  -0.37107000    0.78059000    0.52989000 
H                   1.80858000   -0.03714000    1.03771000 
H                   1.86048000    0.92377000   -0.46098000 
H                   1.84191000   -0.87264000   -0.54974000 


