%nprocshared=2 
%mem=2GB 
# 6-31g(d)  wb97x

tmpdir/M2_conf_0_4.gjf 

0 1
H                   0.00000000    0.00000000    0.00000000 
C                   1.10700000    0.00000000    0.00000000 
H                   1.45002000    0.00000000    1.04146000 
H                   1.46492000   -0.91288000   -0.50207000 
H                   1.52505000    0.92903000   -0.52199000 


