%nprocshared=2 
%mem=2GB 
# 6-31g(d)  wb97x

tmpdir/M2_conf_0_72.gjf 

0 1
C                   0.00000000    0.00000000    0.00000000 
C                   1.39570000    0.00000000    0.00000000 
C                   2.09748000    0.00000000    1.19903000 
H                  -0.55553000   -0.03481000   -0.94472000 
O                  -0.59275000   -0.00696000    1.07773000 
H                   1.91749000    0.00399000   -0.95345000 
H                   3.18487000   -0.03703000    1.17451000 
H                   1.60319000   -0.00381000    2.08129000 


