%nprocshared=2 
%mem=2GB 
# 6-31g(d)  wb97x

tmpdir/M2_conf_0_76.gjf 

0 1
C                   0.00000000    0.00000000    0.00000000 
C                   1.38930000    0.00000000    0.00000000 
H                   1.92851000    0.00000000    0.94533000 
H                  -0.51398000    0.03384000   -0.86913000 
H                  -0.55540000   -0.04026000    0.93341000 
H                   1.90105000    0.03774000   -0.87144000 


