%nprocshared=2 
%mem=2GB 
# 6-31g(d)  wb97x

tmpdir/M2_conf_0_87.gjf 

0 1
C                   0.00000000    0.00000000    0.00000000 
C                   1.38880000    0.00000000    0.00000000 
C                   2.10086000    0.00000000    1.19877000 
O                  -0.62926000    0.02342000    1.05659000 
H                  -0.53909000   -0.01980000   -0.94531000 
H                   1.95040000   -0.00828000   -0.92983000 
H                   1.59268000    0.02128000    2.07286000 
H                   3.18666000   -0.00051000    1.13445000 


