%nprocshared=2 
%mem=2GB 
# 6-31g(d)  wb97x

tmpdir/M2_conf_2_186.gjf 

0 1
C                   0.00000000    0.00000000    0.00000000 
C                   1.39110000    0.00000000    0.00000000 
H                   1.93125000    0.00000000    0.94583000 
H                  -0.48056000    0.00462000   -0.88140000 
H                  -0.56101000   -0.01006000    0.92994000 
H                   1.97234000   -0.00427000   -0.87384000 


