%nprocshared=2 
%mem=2GB 
# 6-31g(d)  wb97x

tmpdir/M2_conf_2_162.gjf 

0 1
C                   0.00000000    0.00000000    0.00000000 
C                   1.39020000    0.00000000    0.00000000 
H                   1.95439000    0.00000000    0.92502000 
O                  -0.69878000   -0.03473000   -1.05799000 
H                  -0.55471000    0.02503000    0.93726000 
O                   1.93606000   -0.02611000   -1.09981000 


