%nprocshared=2 
%mem=2GB 
# 6-31g(d)  wb97x

tmpdir/M2_conf_1_159.gjf 

0 1
H                   0.00000000    0.00000000    0.00000000 
C                   1.08940000    0.00000000    0.00000000 
C                   1.78114000    0.00000000    1.20588000 
O                   1.64463000   -0.00637000   -1.14040000 
H                   1.25696000   -0.02474000    2.15383000 
O                   3.00701000    0.00326000    1.13198000 


