%nprocshared=2 
%mem=2GB 
# 6-31g(d)  wb97x

tmpdir/M2_conf_0_165.gjf 

0 1
C                   0.00000000    0.00000000    0.00000000 
C                   1.40700000    0.00000000    0.00000000 
H                  -0.46558000    0.00000000   -0.94493000 
C                  -0.74866000   -0.01025000    1.17467000 
C                   2.11286000   -0.45554000   -1.11405000 
H                   1.94181000    0.33918000    0.78833000 


