%nprocshared=2 
%mem=2GB 
# 6-31g(d)  wb97x

tmpdir/M2_conf_2_189.gjf 

0 1
N                   0.00000000    0.00000000    0.00000000 
C                   1.33080000    0.00000000    0.00000000 
H                  -0.42589000    0.00000000   -0.83226000 
H                   1.89889000    0.00409000   -0.83653000 
H                   1.79877000   -0.02903000    0.98378000 


