%nprocshared=2 
%mem=2GB 
# 6-31g(d)  wb97x

tmpdir/M2_conf_2_78.gjf 

0 1
H                   0.00000000    0.00000000    0.00000000 
C                   1.08830000    0.00000000    0.00000000 
C                   1.79334000    0.00000000    1.20604000 
O                   1.68270000    0.04634000   -1.07001000 
O                   3.02087000    0.05883000    1.18111000 
H                   1.31448000   -0.02689000    2.18229000 


