%nprocshared=2 
%mem=2GB 
# 6-31g(d)  wb97x

tmpdir/M2_conf_2_160.gjf 

0 1
C                   0.00000000    0.00000000    0.00000000 
H                   1.08160000    0.00000000    0.00000000 
H                  -0.52149000    0.00000000   -0.86075000 
O                  -0.65787000    0.02624000    1.03670000 


