%nprocshared=2 
%mem=2GB 
# 6-31g(d)  wb97x

tmpdir/M2_conf_1_87.gjf 

0 1
C                   0.00000000    0.00000000    0.00000000 
C                   1.38880000    0.00000000    0.00000000 
C                   2.10608000    0.00000000    1.19565000 
O                  -0.62926000    0.02342000    1.05659000 
H                  -0.53909000   -0.01980000   -0.94531000 
H                   1.95040000   -0.00828000   -0.92983000 
H                   1.60172000    0.02128000    2.07195000 
H                   3.19159000   -0.00051000    1.12659000 


