%nprocshared=2 
%mem=2GB 
# 6-31g(d)  wb97x

tmpdir/M2_conf_2_166.gjf 

0 1
N                   0.00000000    0.00000000    0.00000000 
C                   1.34010000    0.00000000    0.00000000 
C                   2.08733000    0.00000000    1.17563000 
O                  -0.52897000    0.00756000    1.03189000 
H                   1.81509000   -0.00824000   -0.96400000 
H                   1.56653000    0.01400000    2.03668000 
H                   3.17022000   -0.03624000    1.17507000 


