%nprocshared=2 
%mem=2GB 
# 6-31g(d)  wb97x

tmpdir/M2_conf_2_147.gjf 

0 1
C                   0.00000000    0.00000000    0.00000000 
N                   1.34160000    0.00000000    0.00000000 
H                  -0.42031000    0.00000000   -0.99453000 
O                  -0.75518000   -0.00645000    1.02578000 
O                   1.83726000    0.00910000    1.04287000 


