%nprocshared=2 
%mem=2GB 
# 6-31g(d)  wb97x

tmpdir/M2_conf_1_177.gjf 

0 1
C                   0.00000000    0.00000000    0.00000000 
C                   1.39530000    0.00000000    0.00000000 
C                   2.04807000    0.00000000    1.22356000 
H                  -0.54367000    0.00728000   -0.92701000 
H                  -0.46974000    0.00844000    0.89543000 
H                   1.94880000    0.00195000   -0.93331000 
H                   3.13334000    0.00622000    1.26564000 
O                   1.37439000   -0.00132000    2.24836000 


