%nprocshared=2 
%mem=2GB 
# 6-31g(d)  wb97x

tmpdir/M2_conf_0_159.gjf 

0 1
H                   0.00000000    0.00000000    0.00000000 
C                   1.08940000    0.00000000    0.00000000 
C                   1.87382000    0.00000000    1.14776000 
O                   1.64463000   -0.00637000   -1.14040000 
H                   1.42580000   -0.02474000    2.13398000 
O                   3.09008000    0.00326000    0.97769000 


