%nprocshared=2 
%mem=2GB 
# 6-31g(d)  wb97x

tmpdir/M2_conf_1_122.gjf 

0 1
H                   0.00000000    0.00000000    0.00000000 
C                   1.08800000    0.00000000    0.00000000 
C                   1.77271000    0.00000000    1.20874000 
O                   1.68532000   -0.00391000   -1.06789000 
H                   1.22658000   -0.00049000    2.15390000 
O                   3.01671000    0.00230000    1.17725000 


