%nprocshared=2 
%mem=2GB 
# 6-31g(d)  wb97x

tmpdir/M2_conf_1_183.gjf 

0 1
H                   0.00000000    0.00000000    0.00000000 
C                   1.08610000    0.00000000    0.00000000 
C                   1.77849000    0.00000000    1.20654000 
H                   1.59260000   -0.00484000   -0.86675000 
H                   1.24071000    0.01015000    2.15367000 
H                   2.82562000   -0.01373000    1.27579000 


