%nprocshared=2 
%mem=2GB 
# 6-31g(d)  wb97x

tmpdir/M2_conf_2_93.gjf 

0 1
C                   0.00000000    0.00000000    0.00000000 
O                   1.22200000    0.00000000    0.00000000 
H                  -0.56167000    0.00000000   -0.93146000 
H                  -0.60203000   -0.01418000    0.89243000 


