%nprocshared=2 
%mem=2GB 
# 6-31g(d)  wb97x

tmpdir/M2_ref_86.gjf 

0 1
C                  -0.76387700    4.67246100    8.92584400 
C                  -0.25734100    3.59727300    9.64421000 
H                   0.61549900    3.05145900    9.29743100 
O                  -1.74417316    5.29460066    9.33177880 
H                  -0.28813700    4.96981900    7.99315000 
O                  -0.79893799    3.23784609   10.68751437 


