%nprocshared=2 
%mem=2GB 
# 6-31g(d)  wb97x

tmpdir/M2_ref_186.gjf 

0 1
C                   3.98992200    3.46811100   11.85054700 
C                   5.09066400    4.23911200   12.20995300 
H                   5.28206000    5.19319200   11.72052500 
H                   3.84409589    2.59149808   12.31749835 
H                   3.29588400    3.80352400   11.08542800 
H                   5.77806442    3.96028953   12.95235611 


