%nprocshared=2 
%mem=2GB 
# 6-31g(d)  wb97x

tmpdir/M2_ref_85.gjf 

0 1
C                  -0.25734100    3.59727300    9.64421000 
C                  -0.87166400    3.18958200   10.82761000 
H                  -0.62401532    4.37558654    9.12419491 
H                   0.61549900    3.05145900    9.29743100 
H                  -1.67672440    3.70008885   11.16524056 
H                  -0.43468081    2.34186155   11.35068496 


