%nprocshared=2 
%mem=2GB 
# 6-31g(d)  wb97x

tmpdir/M2_ref_146.gjf 

0 1
C                   3.07471600   -1.07368000   14.84765900 
N                   3.26303200    0.07820800   14.20875900 
H                   2.09592558   -1.52742686   14.89004464 
H                   3.81247536   -1.63635383   15.35853550 
H                   4.13435769    0.42641059   14.20200498 


