%nprocshared=2 
%mem=2GB 
# 6-31g(d)  wb97x

tmpdir/M2_ref_67.gjf 

0 1
C                  -2.38771300    6.59015600    8.63575000 
C                  -1.87580800    5.37814200    9.38628800 
C                  -0.76387700    4.67246100    8.92584400 
H                  -3.52290860    6.69542645    8.67932881 
H                  -2.01589000    6.56010600    7.59246400 
H                  -1.95354000    7.48965300    9.09299200 
H                  -2.31181684    5.08970600   10.25085762 
H                  -0.28813700    4.96981900    7.99315000 
H                  -0.39720268    3.89414746    9.44585909 


