%nprocshared=2 
%mem=2GB 
# 6-31g(d)  wb97x

tmpdir/M2_ref_76.gjf 

0 1
C                  -2.47812500    4.97968700   10.58063300 
C                  -1.98380100    3.89481300   11.29402400 
H                  -2.45010400    3.62849400   12.24066100 
H                  -2.04211616    5.26812300    9.71606338 
H                  -3.34291200    5.53223700   10.93853000 
H                  -1.17874060    3.38430615   10.95639344 


