%nprocshared=2 
%mem=2GB 
# 6-31g(d)  wb97x

tmpdir/M2_ref_101.gjf 

0 1
C                  -0.26800100    2.01851300   11.55020300 
N                  -1.13954400    1.31644000   12.33992700 
C                  -0.88003800    0.16142000   13.11386500 
H                  -0.70498419    2.86623345   11.02712804 
O                   0.91103200    1.73044000   11.41042700 
H                  -2.11733900    1.53477400   12.22002400 
O                   0.24237642   -0.10305158   13.54037319 
H                  -1.66420561   -0.43231926   13.33573968 


