%nprocshared=2 
%mem=2GB 
# 6-31g(d)  wb97x

tmpdir/M2_ref_104.gjf 

0 1
C                  -0.88003800    0.16142000   13.11386500 
C                  -1.96331300   -0.65879100   13.42037000 
H                  -1.08401257    1.06927843   12.50554122 
C                   0.39309500   -0.13856500   13.59764500 
H                  -2.95635600   -0.42654400   13.04124300 
C                  -1.76034500   -1.78362300   14.20776100 


