%nprocshared=2 
%mem=2GB 
# 6-31g(d)  wb97x

tmpdir/M2_ref_91.gjf 

0 1
C                  -1.98380100    3.89481300   11.29402400 
C                  -0.87166400    3.18958200   10.82761000 
C                  -0.26800100    2.01851300   11.55020300 
O                  -2.41960495    4.85125528   10.66508708 
H                  -2.45010400    3.62849400   12.24066100 
O                  -0.33006701    3.54900891    9.78430563 
O                   0.91103200    1.73044000   11.41042700 
H                  -0.95304338    1.46667590   12.17093475 


