%nprocshared=2 
%mem=2GB 
# 6-31g(d)  wb97x

tmpdir/M2_ref_191.gjf 

0 1
C                   5.75709100    2.72060800   13.76776700 
H                   6.47024600    2.47149700   14.55323900 
H                   4.98824227    2.09789086   13.55891575 
O                   5.95631587    3.83466229   13.18067415 


