%nprocshared=2 
%mem=2GB 
# 6-31g(d)  wb97x

tmpdir/M2_ref_69.gjf 

0 1
C                  -2.47812500    4.97968700   10.58063300 
H                  -3.34291200    5.53223700   10.93853000 
H                  -2.04211616    5.26812300    9.71606338 
O                  -2.04232105    4.02324472   11.20956992 


