%nprocshared=2 
%mem=2GB 
# 6-31g(d)  wb97x

tmpdir/M2_ref_190.gjf 

0 1
C                   5.09066400    4.23911200   12.20995300 
N                   5.96520700    3.88438100   13.15447300 
C                   5.75709100    2.72060800   13.76776700 
O                   4.12023224    3.55938518   11.89309492 
H                   5.28206000    5.19319200   11.72052500 
H                   4.98824227    2.09789086   13.55891575 
H                   6.47024600    2.47149700   14.55323900 


