%nprocshared=2 
%mem=2GB 
# 6-31g(d)  wb97x

tmpdir/M2_ref_174.gjf 

0 1
C                   3.78847300    2.25712900   12.49560900 
H                   2.93967000    1.63118600   12.24037500 
O                   4.58766231    1.90733639   13.36280529 
H                   3.93429911    3.13374192   12.02865765 


