%nprocshared=2 
%mem=2GB 
# 6-31g(d)  wb97x

tmpdir/M2_ref_22.gjf 

0 1
C                  -5.77970900    8.17021300    8.39902500 
N                  -6.45102400    7.14532300    7.61677200 
C                  -6.01243900    5.82643500    8.04295000 
H                  -4.68657599    8.07896500    8.29769761 
H                  -6.09910600    9.15516500    8.03798700 
H                  -6.04780400    8.10009400    9.47228900 
H                  -7.45908400    7.23725852    7.67266319 
H                  -6.50293000    5.07231600    7.41594100 
H                  -6.29645100    5.62670800    9.09586400 
H                  -4.91990030    5.73229652    7.94285249 


