%nprocshared=2 
%mem=2GB 
# 6-31g(d)  wb97x

tmpdir/M2_ref_189.gjf 

0 1
N                   5.96520700    3.88438100   13.15447300 
C                   5.75709100    2.72060800   13.76776700 
H                   5.35286161    4.13275974   12.49313049 
H                   4.98824227    2.09789086   13.55891575 
H                   6.47024600    2.47149700   14.55323900 


