%nprocshared=2 
%mem=2GB 
# 6-31g(d)  wb97x

tmpdir/M2_ref_62.gjf 

0 1
H                  -2.01589000    6.56010600    7.59246400 
C                  -2.38771300    6.59015600    8.63575000 
C                  -1.87580800    5.37814200    9.38628800 
H                  -3.52290860    6.69542645    8.67932881 
H                  -1.95354000    7.48965300    9.09299200 
H                  -2.31181684    5.08970600   10.25085762 
O                  -0.89551184    4.75600234    8.98035320 


