%nprocshared=2 
%mem=2GB 
# 6-31g(d)  wb97x

tmpdir/M2_ref_144.gjf 

0 1
C                   0.58085100   -1.27786900   14.38414800 
N                   1.82945300   -1.65095800   14.90158400 
C                   3.07471600   -1.07368000   14.84765900 
H                   0.44493706   -0.45314278   13.81480949 
O                  -0.37727428   -2.02152885   14.66261523 
H                   1.85535000   -2.50957700   15.43048300 
O                   3.25498676    0.02899704   14.23605409 
H                   3.81247536   -1.63635383   15.35853550 


