%nprocshared=2 
%mem=2GB 
# 6-31g(d)  wb97x

tmpdir/M2_ref_138.gjf 

0 1
C                   0.39309500   -0.13856500   13.59764500 
C                   0.58085100   -1.27786900   14.38414800 
C                  -0.50593200   -2.12138800   14.70000800 
O                  -0.72931942    0.12590658   13.17113681 
H                   1.23073400    0.50003200   13.37036600 
H                   1.56226591   -1.57112106   14.79085839 
H                  -1.41398401   -1.87688465   14.34367729 
H                  -0.37454669   -3.01451999   15.31377863 


