%nprocshared=2 
%mem=2GB 
# 6-31g(d)  wb97x

tmpdir/M2_ref_117.gjf 

0 1
H                  -2.95635600   -0.42654400   13.04124300 
C                  -1.96331300   -0.65879100   13.42037000 
C                  -1.76034500   -1.78362300   14.20776100 
H                  -1.17914539   -0.06505174   13.19849532 
H                  -2.60630700   -2.42488700   14.44604800 
H                  -0.85229299   -2.02812635   14.56409171 


