%nprocshared=2 
%mem=2GB 
# 6-31g(d)  wb97x

tmpdir/M2_ref_111.gjf 

0 1
C                  -0.88003800    0.16142000   13.11386500 
C                   0.39309500   -0.13856500   13.59764500 
C                   0.58085100   -1.27786900   14.38414800 
H                  -1.08401257    1.06927843   12.50554122 
H                  -1.66420561   -0.43231926   13.33573968 
H                   1.23073400    0.50003200   13.37036600 
O                  -0.37727428   -2.02152885   14.66261523 
H                   1.56226591   -1.57112106   14.79085839 


