%nprocshared=2 
%mem=2GB 
# 6-31g(d)  wb97x

tmpdir/M2_ref_170.gjf 

0 1
C                   4.69497800    1.86036600   13.47925300 
C                   5.75709100    2.72060800   13.76776700 
H                   4.55922693    0.93027383   14.00034958 
C                   3.78847300    2.25712900   12.49560900 
C                   5.98306793    3.98425833   13.10183888 
H                   6.47024600    2.47149700   14.55323900 


