%nprocshared=2 
%mem=2GB 
# 6-31g(d)  wb97x

tmpdir/M2_ref_156.gjf 

0 1
C                   5.23707900   -1.28224100   15.46829400 
C                   5.55768600   -0.09244400   14.82460900 
C                   3.90830324   -1.83307741   15.50013682 
H                   6.00504800   -1.85936600   15.98209700 
H                   6.57685600    0.27434900   14.79763300 
C                   4.50744700    0.57550600   14.19911300 


