%nprocshared=2 
%mem=2GB 
# 6-31g(d)  wb97x

tmpdir/M2_ref_182.gjf 

0 1
C                   3.78847300    2.25712900   12.49560900 
C                   3.98992200    3.46811100   11.85054700 
C                   5.09066400    4.23911200   12.20995300 
O                   4.58766231    1.90733639   13.36280529 
H                   2.93967000    1.63118600   12.24037500 
H                   3.29588400    3.80352400   11.08542800 
H                   5.28206000    5.19319200   11.72052500 
H                   5.77806442    3.96028953   12.95235611 


