%nprocshared=2 
%mem=2GB 
# 6-31g(d)  wb97x

tmpdir/M2_ref_151.gjf 

0 1
N                   3.26303200    0.07820800   14.20875900 
C                   4.50744700    0.57550600   14.19911300 
O                   3.09892289   -0.92561171   14.76553224 
O                   5.43335451   -0.01336941   14.75056028 
H                   4.64319807    1.50559817   13.67801642 


