%nprocshared=2 
%mem=2GB 
# 6-31g(d)  wb97x

tmpdir/M2_ref_11.gjf 

0 1
C                  -5.77970900    8.17021300    8.39902500 
H                  -6.04780400    8.10009400    9.47228900 
H                  -4.68657599    8.07896500    8.29769761 
H                  -6.09910600    9.15516500    8.03798700 
H                  -6.30736997    7.36463819    7.78416554 


