%nprocshared=2 
%mem=2GB 
# 6-31g(d)  wb97x

tmpdir/M2_ref_23.gjf 

0 1
C                  -7.89072100    7.27662400    7.69659500 
N                  -6.45102400    7.14532300    7.61677200 
C                  -6.01243900    5.82643500    8.04295000 
H                  -8.27584800    7.15840900    8.72803300 
H                  -8.36712600    6.51853500    7.06561000 
H                  -8.19355100    8.26357400    7.33047400 
H                  -5.98097662    7.86293970    8.16449695 
H                  -6.50293000    5.07231600    7.41594100 
H                  -6.29645100    5.62670800    9.09586400 
H                  -4.91990030    5.73229652    7.94285249 


