%nprocshared=2 
%mem=2GB 
# 6-31g(d)  wb97x

tmpdir/M2_ref_148.gjf 

0 1
N                   1.82945300   -1.65095800   14.90158400 
C                   3.07471600   -1.07368000   14.84765900 
N                   3.26303200    0.07820800   14.20875900 
H                   0.95519561   -1.38972519   14.53928100 
H                   1.85535000   -2.50957700   15.43048300 
H                   3.81247536   -1.63635383   15.35853550 
H                   4.13435769    0.42641059   14.20200498 


