%nprocshared=2 
%mem=2GB 
# 6-31g(d)  wb97x

tmpdir/M2_ref_64.gjf 

0 1
C                  -1.87580800    5.37814200    9.38628800 
C                  -2.47812500    4.97968700   10.58063300 
H                  -2.24636886    6.25550197    8.84298405 
C                  -0.76387700    4.67246100    8.92584400 
H                  -3.34291200    5.53223700   10.93853000 
C                  -1.98380100    3.89481300   11.29402400 


