%nprocshared=2 
%mem=2GB 
# 6-31g(d)  wb97x

tmpdir/M2_ref_35.gjf 

0 1
C                  -6.01243900    5.82643500    8.04295000 
C                  -4.50317000    5.69638900    7.90467200 
H                  -6.35717163    6.86309548    7.70796940 
H                  -6.50293000    5.07231600    7.41594100 
H                  -6.29645100    5.62670800    9.09586400 
H                  -4.18463700    4.71112200    8.26219800 
H                  -4.22932800    5.77522300    6.83472100 
H                  -3.97559313    6.50417015    8.52288616 


