%nprocshared=2 
%mem=2GB 
# 6-31g(d)  wb97x

tmpdir/M2_ref_96.gjf 

0 1
C                  -0.87166400    3.18958200   10.82761000 
C                  -0.26800100    2.01851300   11.55020300 
N                  -1.13954400    1.31644000   12.33992700 
H                  -1.67672440    3.70008885   11.16524056 
O                  -0.33006701    3.54900891    9.78430563 
O                   0.91103200    1.73044000   11.41042700 
H                  -2.11733900    1.53477400   12.22002400 
H                  -0.95784075    0.50770770   12.88182987 


