%nprocshared=2 
%mem=2GB 
# 6-31g(d)  wb97x

tmpdir/M2_ref_155.gjf 

0 1
C                   5.23707900   -1.28224100   15.46829400 
H                   6.00504800   -1.85936600   15.98209700 
O                   4.06560909   -1.76786717   15.49636713 
H                   5.46916192   -0.42096361   15.00233944 


