%nprocshared=2 
%mem=2GB 
# 6-31g(d)  wb97x

tmpdir/M2_ref_160.gjf 

0 1
C                   5.55768600   -0.09244400   14.82460900 
H                   6.57685600    0.27434900   14.79763300 
H                   5.32560308   -0.95372139   15.29056356 
O                   4.63177849    0.49643141   14.27316172 


