%nprocshared=2 
%mem=2GB 
# 6-31g(d)  wb97x

tmpdir/M2_ref_93.gjf 

0 1
C                  -0.26800100    2.01851300   11.55020300 
O                   0.91103200    1.73044000   11.41042700 
H                  -0.70498419    2.86623345   11.02712804 
H                  -0.95304338    1.46667590   12.17093475 


