%nprocshared=2 
%mem=2GB 
# 6-31g(d)  wb97x

tmpdir/M2_ref_84.gjf 

0 1
C                  -0.25734100    3.59727300    9.64421000 
H                   0.61549900    3.05145900    9.29743100 
H                  -0.62401532    4.37558654    9.12419491 
O                  -0.79893799    3.23784609   10.68751437 


