%nprocshared=2 
%mem=2GB 
# 6-31g(d)  wb97x

tmpdir/M2_ref_125.gjf 

0 1
C                  -1.76034500   -1.78362300   14.20776100 
C                  -0.50593200   -2.12138800   14.70000800 
C                  -0.32443200   -3.35519000   15.54789100 
O                  -1.93928484   -0.79195311   13.51358450 
H                  -2.60630700   -2.42488700   14.44604800 
O                   0.45219328   -1.37772815   14.42154077 
H                  -1.27948400   -3.86960500   15.68462200 
H                   0.06138900   -3.11552700   16.54759700 
H                   0.36702600   -4.07412800   15.08831500 


