%nprocshared=2 
%mem=2GB 
# 6-31g(d)  wb97x

tmpdir/M2_ref_90.gjf 

0 1
C                  -1.98380100    3.89481300   11.29402400 
C                  -0.87166400    3.18958200   10.82761000 
C                  -0.25734100    3.59727300    9.64421000 
O                  -2.41960495    4.85125528   10.66508708 
H                  -2.45010400    3.62849400   12.24066100 
H                  -0.43468081    2.34186155   11.35068496 
H                  -0.62401532    4.37558654    9.12419491 
H                   0.61549900    3.05145900    9.29743100 


