%nprocshared=2 
%mem=2GB 
# 6-31g(d)  wb97x

tmpdir/M2_ref_122.gjf 

0 1
H                  -2.60630700   -2.42488700   14.44604800 
C                  -1.76034500   -1.78362300   14.20776100 
C                  -0.50593200   -2.12138800   14.70000800 
O                  -1.93928484   -0.79195311   13.51358450 
H                  -0.37454669   -3.01451999   15.31377863 
O                   0.45219328   -1.37772815   14.42154077 


