%nprocshared=2 
%mem=2GB 
# 6-31g(d)  wb97x

tmpdir/M2_ref_65.gjf 

0 1
C                  -1.87580800    5.37814200    9.38628800 
C                  -0.76387700    4.67246100    8.92584400 
H                  -2.24636886    6.25550197    8.84298405 
H                  -2.31181684    5.08970600   10.25085762 
H                  -0.28813700    4.96981900    7.99315000 
H                  -0.39720268    3.89414746    9.44585909 


