%nprocshared=2 
%mem=2GB 
# 6-31g(d)  wb97x

tmpdir/M2_ref_118.gjf 

0 1
C                  -1.76034500   -1.78362300   14.20776100 
H                  -2.60630700   -2.42488700   14.44604800 
O                  -1.93928484   -0.79195311   13.51358450 
H                  -0.85229299   -2.02812635   14.56409171 


