%nprocshared=2 
%mem=2GB 
# 6-31g(d)  wb97x

tmpdir/M2_ref_184.gjf 

0 1
C                   5.09066400    4.23911200   12.20995300 
H                   5.28206000    5.19319200   11.72052500 
O                   4.12023224    3.55938518   11.89309492 
H                   5.77806442    3.96028953   12.95235611 


