%nprocshared=2 
%mem=2GB 
# 6-31g(d)  wb97x

tmpdir/M2_ref_77.gjf 

0 1
C                  -2.47812500    4.97968700   10.58063300 
C                  -1.98380100    3.89481300   11.29402400 
C                  -0.87166400    3.18958200   10.82761000 
H                  -2.04211616    5.26812300    9.71606338 
H                  -3.34291200    5.53223700   10.93853000 
H                  -2.45010400    3.62849400   12.24066100 
O                  -0.33006701    3.54900891    9.78430563 
H                  -0.43468081    2.34186155   11.35068496 


