%nprocshared=2 
%mem=2GB 
# 6-31g(d)  wb97x

tmpdir/M2_ref_168.gjf 

0 1
C                   5.55768600   -0.09244400   14.82460900 
C                   4.50744700    0.57550600   14.19911300 
C                   4.69497800    1.86036600   13.47925300 
H                   5.32560308   -0.95372139   15.29056356 
H                   6.57685600    0.27434900   14.79763300 
H                   3.52932312    0.18462430   14.20669486 
O                   3.89578869    2.21015861   12.61205671 
H                   5.46382673    2.48308314   13.68810425 


