%nprocshared=2 
%mem=2GB 
# 6-31g(d)  wb97x

tmpdir/M2_ref_143.gjf 

0 1
C                   0.58085100   -1.27786900   14.38414800 
N                   1.82945300   -1.65095800   14.90158400 
H                   1.85535000   -2.50957700   15.43048300 
H                   0.44493706   -0.45314278   13.81480949 
O                  -0.37727428   -2.02152885   14.66261523 
H                   2.70137245   -1.24675429   14.86382631 


