%nprocshared=2 
%mem=2GB 
# 6-31g(d)  wb97x

tmpdir/M2_ref_21.gjf 

0 1
C                  -5.77970900    8.17021300    8.39902500 
N                  -6.45102400    7.14532300    7.61677200 
C                  -7.89072100    7.27662400    7.69659500 
H                  -4.68657599    8.07896500    8.29769761 
H                  -6.09910600    9.15516500    8.03798700 
H                  -6.04780400    8.10009400    9.47228900 
H                  -6.14393161    6.22185213    7.91517715 
H                  -8.27584800    7.15840900    8.72803300 
H                  -8.36712600    6.51853500    7.06561000 
H                  -8.19355100    8.26357400    7.33047400 


