%nprocshared=2 
%mem=2GB 
# 6-31g(d)  wb97x

tmpdir/M2_ref_43.gjf 

0 1
C                  -4.50317000    5.69638900    7.90467200 
H                  -4.22932800    5.77522300    6.83472100 
H                  -5.59570870    5.79052748    8.00476951 
H                  -4.18463700    4.71112200    8.26219800 
H                  -3.97559313    6.50417015    8.52288616 


