%nprocshared=2 
%mem=2GB 
# 6-31g(d)  wb97x

tmpdir/M2_ref_110.gjf 

0 1
C                  -0.88003800    0.16142000   13.11386500 
C                   0.39309500   -0.13856500   13.59764500 
H                   1.23073400    0.50003200   13.37036600 
H                  -1.08401257    1.06927843   12.50554122 
H                  -1.66420561   -0.43231926   13.33573968 
H                   0.52900894   -0.96329122   14.16698351 


