%nprocshared=2 
%mem=2GB 
# 6-31g(d)  wb97x

tmpdir/M2_ref_106.gjf 

0 1
N                  -1.13954400    1.31644000   12.33992700 
C                  -0.88003800    0.16142000   13.11386500 
C                  -1.96331300   -0.65879100   13.42037000 
H                  -0.52929918    1.80802379   11.78697094 
H                  -2.11733900    1.53477400   12.22002400 
O                   0.24237642   -0.10305158   13.54037319 
H                  -2.95635600   -0.42654400   13.04124300 
O                  -1.78437316   -1.65046089   14.11454650 


