%nprocshared=2 
%mem=2GB 
# 6-31g(d)  wb97x

tmpdir/M2_ref_15.gjf 

0 1
C                  -4.26961900    8.04416000    8.25904800 
C                  -5.77970900    8.17021300    8.39902500 
N                  -6.45102400    7.14532300    7.61677200 
H                  -3.98842300    8.23873700    7.20620200 
H                  -3.77996500    8.80014000    8.88436200 
H                  -3.92561578    7.00656732    8.59871872 
H                  -6.09910600    9.15516500    8.03798700 
H                  -6.04780400    8.10009400    9.47228900 
H                  -7.45908400    7.23725852    7.67266319 
H                  -6.14393161    6.22185213    7.91517715 


