%nprocshared=2 
%mem=2GB 
# 6-31g(d)  wb97x

tmpdir/M2_ref_47.gjf 

0 1
C                  -6.01243900    5.82643500    8.04295000 
C                  -4.50317000    5.69638900    7.90467200 
N                  -3.83196200    6.72408600    8.69119300 
H                  -6.35717163    6.86309548    7.70796940 
H                  -6.50293000    5.07231600    7.41594100 
H                  -6.29645100    5.62670800    9.09586400 
H                  -4.18463700    4.71112200    8.26219800 
H                  -4.22932800    5.77522300    6.83472100 
H                  -4.13840462    7.64838729    8.38860982 
H                  -2.82071474    6.63030969    8.65237242 


