%nprocshared=2 
%mem=2GB 
# 6-31g(d)  wb97x

tmpdir/M2_ref_181.gjf 

0 1
C                   3.78847300    2.25712900   12.49560900 
C                   3.98992200    3.46811100   11.85054700 
H                   3.29588400    3.80352400   11.08542800 
O                   4.58766231    1.90733639   13.36280529 
H                   2.93967000    1.63118600   12.24037500 
O                   4.96035376    4.14783782   12.16740508 


