%nprocshared=2 
%mem=2GB 
# 6-31g(d)  wb97x

tmpdir/M2_ref_179.gjf 

0 1
C                   3.98992200    3.46811100   11.85054700 
H                   3.29588400    3.80352400   11.08542800 
H                   3.84409589    2.59149808   12.31749835 
O                   4.96035376    4.14783782   12.16740508 


