%nprocshared=2 
%mem=2GB 
# 6-31g(d)  wb97x

tmpdir/M2_ref_172.gjf 

0 1
C                   4.50744700    0.57550600   14.19911300 
C                   4.69497800    1.86036600   13.47925300 
C                   5.75709100    2.72060800   13.76776700 
H                   3.52932312    0.18462430   14.20669486 
O                   5.43335451   -0.01336941   14.75056028 
O                   3.89578869    2.21015861   12.61205671 
O                   5.95631587    3.83466229   13.18067415 
H                   6.47024600    2.47149700   14.55323900 


