%nprocshared=2 
%mem=2GB 
# 6-31g(d)  wb97x

tmpdir/M2_ref_53.gjf 

0 1
C                  -4.26961900    8.04416000    8.25904800 
N                  -3.83196200    6.72408600    8.69119300 
C                  -2.38771300    6.59015600    8.63575000 
H                  -3.98842300    8.23873700    7.20620200 
H                  -3.77996500    8.80014000    8.88436200 
H                  -5.36275201    8.13540800    8.36037539 
H                  -4.30193446    6.00450387    8.14047965 
H                  -2.01589000    6.56010600    7.59246400 
H                  -1.95354000    7.48965300    9.09299200 
H                  -2.01715214    5.71279603    9.17905395 


