%nprocshared=2 
%mem=2GB 
# 6-31g(d)  wb97x

tmpdir/M2_ref_126.gjf 

0 1
C                  -1.76034500   -1.78362300   14.20776100 
C                  -0.50593200   -2.12138800   14.70000800 
C                   0.58085100   -1.27786900   14.38414800 
O                  -1.93928484   -0.79195311   13.51358450 
H                  -2.60630700   -2.42488700   14.44604800 
H                  -0.37454669   -3.01451999   15.31377863 
H                   0.44493706   -0.45314278   13.81480949 
H                   1.56226591   -1.57112106   14.79085839 


