%nprocshared=2 
%mem=2GB 
# 6-31g(d)  wb97x

tmpdir/M2_ref_149.gjf 

0 1
N                   1.82945300   -1.65095800   14.90158400 
C                   3.07471600   -1.07368000   14.84765900 
N                   4.01332800   -1.78954000   15.49762000 
H                   0.95519561   -1.38972519   14.53928100 
H                   1.85535000   -2.50957700   15.43048300 
O                   3.25498676    0.02899704   14.23605409 
O                   5.07977315   -1.34745124   15.47206368 


