%nprocshared=4 
%mem=4GB 
# 6-31g(d)  wb97x

tmpdir/M3_conf_0_66.gjf 

0 1
C                   0.00000000    0.00000000    0.00000000 
N                   1.33110000    0.00000000    0.00000000 
H                  -0.45796000    0.00000000   -0.98659000 
O                  -0.68317000    0.01520000    1.01272000 
H                   1.77215000    0.18201000   -0.88906000 
H                   1.94242000    0.01944000    0.77885000 


