%nprocshared=4 
%mem=4GB 
# 6-31g(d)  wb97x

tmpdir/M3_conf_2_15.gjf 

0 1
C                   0.00000000    0.00000000    0.00000000 
C                   1.52180000    0.00000000    0.00000000 
N                   2.07244000    0.00000000    1.34527000 
H                  -0.35967000    0.94322000    0.45434000 
H                  -0.36584000   -0.03788000   -1.03298000 
H                  -0.39601000   -0.91369000    0.56452000 
H                   1.88713000    0.89759000   -0.51322000 
H                   1.88068000   -0.88297000   -0.56599000 
H                   3.08556000    0.03441000    1.33118000 
H                   1.73419000   -0.81013000    1.86044000 


