%nprocshared=4 
%mem=4GB 
# 6-31g(d)  wb97x

tmpdir/M3_conf_2_28.gjf 

0 1
N                   0.00000000    0.00000000    0.00000000 
C                   1.44790000    0.00000000    0.00000000 
H                   1.84990000    0.00000000    1.01897000 
H                  -0.37220000    0.03868000   -0.94651000 
H                  -0.37257000   -0.81171000    0.48830000 
H                   1.87700000   -0.87808000   -0.52054000 
H                   1.81841000    0.90437000   -0.49472000 


