%nprocshared=4 
%mem=4GB 
# 6-31g(d)  wb97x

tmpdir/M3_conf_2_19.gjf 

0 1
N                   0.00000000    0.00000000    0.00000000 
C                   1.44290000    0.00000000    0.00000000 
H                  -0.37220000    0.00000000   -0.94730000 
H                  -0.37257000   -0.79110000    0.52104000 
H                   1.87200000   -0.89860000   -0.48425000 
H                   1.81305000    0.04209000    1.03010000 
H                   1.81341000    0.88341000   -0.53123000 


