%nprocshared=4 
%mem=4GB 
# 6-31g(d)  wb97x

tmpdir/M3_conf_1_40.gjf 

0 1
H                   0.00000000    0.00000000    0.00000000 
C                   1.09650000    0.00000000    0.00000000 
C                   1.65081000    0.00000000    1.41661000 
H                   1.46362000   -0.92950000   -0.55409000 
H                   1.43413000    0.92938000   -0.50147000 
H                   1.33727000    0.91313000    1.93430000 
H                   1.23405000   -0.86451000    1.96873000 
H                   2.79580000   -0.04087000    1.39610000 


