%nprocshared=4 
%mem=4GB 
# 6-31g(d)  wb97x

tmpdir/M3_conf_0_71.gjf 

0 1
N                   0.00000000    0.00000000    0.00000000 
C                   1.36890000    0.00000000    0.00000000 
C                   2.11226000    0.00000000    1.17997000 
C                   2.00775000   -0.04514000   -1.23693000 
H                   1.62018000    0.02460000    2.13823000 
C                   3.50749000   -0.03266000    1.11561000 
H                   1.42844000   -0.04273000   -2.15787000 
C                   3.39449000   -0.08297000   -1.28258000 
C                   4.16970000   -0.07439000   -0.12982000 
H                   3.89336000   -0.11691000   -2.24886000 
H                  -0.59206000    0.32757000    0.67973000 
H                  -0.42339000   -0.20369000   -0.89294000 
H                   4.14978000   -0.02895000    2.01120000 
H                   5.25901000   -0.10076000   -0.19550000 


