%nprocshared=4 
%mem=4GB 
# 6-31g(d)  wb97x

tmpdir/M3_conf_1_37.gjf 

0 1
N                   0.00000000    0.00000000    0.00000000 
C                   1.45380000    0.00000000    0.00000000 
H                   1.80266000    0.00000000    1.05238000 
H                  -0.34861000    0.85562000    0.42697000 
H                  -0.37107000   -0.82267000    0.46185000 
H                   1.80608000   -0.91193000   -0.49658000 
H                   1.83941000    0.88154000   -0.53535000 


