%nprocshared=4 
%mem=4GB 
# 6-31g(d)  wb97x

tmpdir/M3_conf_1_63.gjf 

0 1
H                   0.00000000    0.00000000    0.00000000 
C                   1.09850000    0.00000000    0.00000000 
C                   1.57034000    0.00000000    1.43933000 
C                   1.63463000   -1.19207000    2.16239000 
C                   1.89770000    1.19443000    2.08157000 
H                   1.37706000   -2.12120000    1.66068000 
C                   2.02524000   -1.18983000    3.49565000 
H                   1.85668000    2.13036000    1.52752000 
C                   2.27340000    1.20244000    3.41857000 
H                   2.03134000   -2.12884000    4.04576000 
C                   2.35446000    0.00835000    4.13388000 
H                   2.51754000    2.13042000    3.92776000 
H                   1.44290000   -0.91713000   -0.58473000 
H                   1.41041000    0.94323000   -0.49060000 
H                   2.65395000    0.07104000    5.17765000 


