%nprocshared=4 
%mem=4GB 
# 6-31g(d)  wb97x

tmpdir/M3_conf_1_73.gjf 

0 1
C                   0.00000000    0.00000000    0.00000000 
N                   1.36970000    0.00000000    0.00000000 
C                   2.23874000    0.00000000    1.11593000 
C                   1.85681000   -0.51226000    2.35554000 
C                   3.52588000    0.49633000    0.92328000 
H                   0.86496000   -0.90611000    2.50426000 
C                   2.77100000   -0.51374000    3.41201000 
H                   3.82366000    0.89830000   -0.04288000 
C                   4.42332000    0.48206000    1.98203000 
C                   4.07737000   -0.01066000    3.23400000 
H                   5.42825000    0.87099000    1.83174000 
H                  -0.45796000    0.02462000   -0.98628000 
O                  -0.68317000   -0.01008000    1.01279000 
H                   1.81075000    0.20414000   -0.88424000 
H                   2.52783000   -0.89920000    4.41546000 
H                   4.80237000   -0.00590000    4.05005000 


