%nprocshared=4 
%mem=4GB 
# 6-31g(d)  wb97x

tmpdir/M3_conf_2_63.gjf 

0 1
H                   0.00000000    0.00000000    0.00000000 
C                   1.09850000    0.00000000    0.00000000 
C                   1.56682000    0.00000000    1.44048000 
C                   1.62935000   -1.19207000    2.16370000 
C                   1.89261000    1.19443000    2.08352000 
H                   1.37300000   -2.12120000    1.66135000 
C                   2.01670000   -1.18983000    3.49791000 
H                   1.85294000    2.13036000    1.52936000 
C                   2.26505000    1.20244000    3.42143000 
H                   2.02145000   -2.12884000    4.04802000 
C                   2.34436000    0.00835000    4.13693000 
H                   2.50794000    2.13042000    3.93122000 
H                   1.44290000   -0.91713000   -0.58473000 
H                   1.41041000    0.94323000   -0.49060000 
H                   2.64129000    0.07104000    5.18144000 


