%nprocshared=4 
%mem=4GB 
# 6-31g(d)  wb97x

tmpdir/M3_conf_0_60.gjf 

0 1
N                   0.00000000    0.00000000    0.00000000 
C                   1.45150000    0.00000000    0.00000000 
C                   2.11598000    0.00000000    1.36117000 
C                   1.56234000    0.72384000    2.41830000 
C                   3.31747000   -0.67841000    1.56724000 
H                   0.62744000    1.25355000    2.25488000 
C                   2.19257000    0.76131000    3.65587000 
H                   3.75714000   -1.25073000    0.75252000 
C                   3.95845000   -0.63036000    2.79834000 
H                   1.75814000    1.36317000    4.45175000 
C                   3.39416000    0.07827000    3.85829000 
H                   4.90043000   -1.14619000    2.96156000 
H                  -0.37868000    0.23113000   -0.91813000 
H                  -0.38025000   -0.89233000    0.31810000 
H                   1.86405000   -0.85293000   -0.57444000 
H                   1.78311000    0.91049000   -0.51744000 
H                   3.93714000    0.08318000    4.80075000 


