%nprocshared=4 
%mem=4GB 
# 6-31g(d)  wb97x

tmpdir/M3_conf_2_24.gjf 

0 1
C                   0.00000000    0.00000000    0.00000000 
H                   1.10240000    0.00000000    0.00000000 
H                  -0.44099000    0.00000000   -1.04908000 
H                  -0.34104000   -0.88690000    0.54498000 
H                  -0.34104000    0.88671000    0.54529000 


