%nprocshared=4 
%mem=4GB 
# 6-31g(d)  wb97x

tmpdir/M3_conf_1_29.gjf 

0 1
N                   0.00000000    0.00000000    0.00000000 
C                   1.44790000    0.00000000    0.00000000 
H                   1.85523000    0.00000000    1.01685000 
H                  -0.37220000    0.81183000    0.48818000 
H                  -0.37257000   -0.03884000   -0.94647000 
H                   1.87700000    0.87808000   -0.52054000 
H                   1.81805000   -0.90448000   -0.49478000 


