%nprocshared=4 
%mem=4GB 
# 6-31g(d)  wb97x

tmpdir/M3_conf_2_49.gjf 

0 1
H                   0.00000000    0.00000000    0.00000000 
C                   1.09550000    0.00000000    0.00000000 
N                   1.56771000    0.00000000    1.37920000 
H                   1.46523000    0.89089000   -0.53108000 
H                   1.43599000   -0.90777000   -0.53471000 
H                   2.58688000    0.02727000    1.39730000 
H                   1.20200000   -0.78938000    1.90456000 


