%nprocshared=4 
%mem=4GB 
# 6-31g(d)  wb97x

tmpdir/M3_conf_1_22.gjf 

0 1
C                   0.00000000    0.00000000    0.00000000 
N                   1.45360000    0.00000000    0.00000000 
C                   2.02515000    0.00000000    1.33674000 
H                  -0.38597000    0.87404000    0.54828000 
H                  -0.35267000    0.03479000   -1.03776000 
H                  -0.40429000   -0.92201000    0.46392000 
H                   1.82434000   -0.78051000   -0.53024000 
H                   3.11779000    0.03714000    1.25269000 
H                   1.76019000   -0.92377000    1.88960000 
H                   1.67127000    0.87264000    1.90743000 


