%nprocshared=4 
%mem=4GB 
# 6-31g(d)  wb97x

tmpdir/M3_conf_2_3.gjf 

0 1
C                   0.00000000    0.00000000    0.00000000 
N                   1.44370000    0.00000000    0.00000000 
H                  -0.40428000    0.00000000   -1.03054000 
H                  -0.35264000    0.90947000    0.50081000 
H                  -0.38110000   -0.88483000    0.53419000 
H                   1.79133000   -0.85556000   -0.43499000 
H                   1.82112000    0.83162000   -0.44591000 


