%nprocshared=4 
%mem=4GB 
# 6-31g(d)  wb97x

tmpdir/M3_conf_2_88.gjf 

0 1
C                   0.00000000    0.00000000    0.00000000 
N                   1.40210000    0.00000000    0.00000000 
H                   1.84607000    0.00000000    0.90585000 
C                  -0.76071000   -0.04110000   -1.17112000 
C                  -0.62672000    0.04590000    1.26390000 
C                  -2.15279000   -0.04537000   -1.08749000 
H                  -0.26870000   -0.06885000   -2.12933000 
C                  -2.01529000    0.05020000    1.30547000 
C                  -2.78603000    0.00405000    0.15205000 
H                  -2.50991000    0.08739000    2.27383000 
H                  -3.87202000   -0.00172000    0.21799000 
H                   2.05706000    0.00479000   -0.70431000 
H                  -0.04552000    0.07879000    2.18733000 
H                  -2.80068000   -0.05209000   -1.99086000 


