%nprocshared=4 
%mem=4GB 
# 6-31g(d)  wb97x

tmpdir/M3_conf_0_63.gjf 

0 1
H                   0.00000000    0.00000000    0.00000000 
C                   1.09850000    0.00000000    0.00000000 
C                   1.57837000    0.00000000    1.43668000 
C                   1.64670000   -1.19207000    2.15937000 
C                   1.90931000    1.19443000    2.07708000 
H                   1.38633000   -2.12120000    1.65910000 
C                   2.04475000   -1.18983000    3.49042000 
H                   1.86520000    2.13036000    1.52326000 
C                   2.29248000    1.20244000    3.41195000 
H                   2.05392000   -2.12884000    4.04048000 
C                   2.37753000    0.00835000    4.12680000 
H                   2.53945000    2.13042000    3.91978000 
H                   1.44290000   -0.91713000   -0.58473000 
H                   1.41041000    0.94323000   -0.49060000 
H                   2.68284000    0.07104000    5.16888000 


