%nprocshared=4 
%mem=4GB 
# 6-31g(d)  wb97x

tmpdir/M3_conf_0_35.gjf 

0 1
C                   0.00000000    0.00000000    0.00000000 
C                   1.53100000    0.00000000    0.00000000 
H                  -0.40018000    0.00000000   -1.07034000 
H                  -0.36512000   -0.89783000    0.51274000 
H                  -0.36041000    0.88241000    0.56628000 
H                   1.89885000    0.03547000    1.03129000 
H                   1.89330000   -0.94044000   -0.45848000 
H                   1.92912000    0.91214000   -0.56798000 


