%nprocshared=4 
%mem=4GB 
# 6-31g(d)  wb97x

tmpdir/M3_conf_1_78.gjf 

0 1
C                   0.00000000    0.00000000    0.00000000 
H                   1.09510000    0.00000000    0.00000000 
H                  -0.41051000    0.00000000   -1.01147000 
H                  -0.32169000   -0.89235000    0.54384000 
H                  -0.33237000    0.87114000    0.57988000 


