%nprocshared=4 
%mem=4GB 
# 6-31g(d)  wb97x

tmpdir/M3_conf_2_50.gjf 

0 1
H                   0.00000000    0.00000000    0.00000000 
C                   1.10720000    0.00000000    0.00000000 
N                   1.64763000    0.00000000    1.35392000 
H                   1.46750000   -0.88478000   -0.54752000 
H                   1.44409000    0.90968000   -0.50903000 
H                   1.37212000   -0.85425000    1.83779000 
H                   1.37418000    0.83129000    1.87069000 


