%nprocshared=4 
%mem=4GB 
# 6-31g(d)  wb97x

tmpdir/M3_conf_1_16.gjf 

0 1
H                   0.00000000    0.00000000    0.00000000 
C                   1.09660000    0.00000000    0.00000000 
H                   1.41921000    0.00000000    1.06052000 
H                   1.46360000    0.91461000   -0.49226000 
H                   1.46407000   -0.92844000   -0.55544000 


