%nprocshared=4 
%mem=4GB 
# 6-31g(d)  wb97x

tmpdir/M3_conf_0_56.gjf 

0 1
C                   0.00000000    0.00000000    0.00000000 
H                   1.09940000    0.00000000    0.00000000 
H                  -0.34440000    0.00000000   -1.08768000 
H                  -0.31191000   -0.92075000    0.53160000 
H                  -0.34575000    0.87741000    0.55940000 


