%nprocshared=4 
%mem=4GB 
# 6-31g(d)  wb97x

tmpdir/M3_conf_0_73.gjf 

0 1
C                   0.00000000    0.00000000    0.00000000 
N                   1.36970000    0.00000000    0.00000000 
C                   2.28584000    0.00000000    1.07760000 
C                   1.95747000   -0.51226000    2.33246000 
C                   3.56352000    0.49633000    0.82989000 
H                   0.97291000   -0.90611000    2.52361000 
C                   2.91616000   -0.51374000    3.34872000 
H                   3.81956000    0.89830000   -0.14817000 
C                   4.50558000    0.48206000    1.84913000 
C                   4.21368000   -0.01066000    3.11480000 
H                   5.50313000    0.87099000    1.65585000 
H                  -0.45796000    0.02462000   -0.98628000 
O                  -0.68317000   -0.01008000    1.01279000 
H                   1.81075000    0.20414000   -0.88424000 
H                   2.71628000   -0.89920000    4.36168000 
H                   4.97304000   -0.00590000    3.89898000 


