%nprocshared=4 
%mem=4GB 
# 6-31g(d)  wb97x

tmpdir/M3_conf_0_11.gjf 

0 1
C                   0.00000000    0.00000000    0.00000000 
H                   1.10080000    0.00000000    0.00000000 
H                  -0.35665000    0.00000000   -1.04227000 
H                  -0.33468000    0.91642000    0.50069000 
H                  -0.41672000   -0.90095000    0.56583000 


