%nprocshared=4 
%mem=4GB 
# 6-31g(d)  wb97x

tmpdir/M3_conf_1_5.gjf 

0 1
H                   0.00000000    0.00000000    0.00000000 
C                   1.10700000    0.00000000    0.00000000 
C                   1.61223000    0.00000000    1.43548000 
H                   1.44456000    0.91412000   -0.50275000 
H                   1.52505000   -0.90509000   -0.56249000 
H                   1.18082000    0.85191000    1.97462000 
H                   2.71344000    0.12673000    1.42836000 
H                   1.30706000   -0.96415000    1.96730000 


