%nprocshared=4 
%mem=4GB 
# 6-31g(d)  wb97x

tmpdir/M3_conf_1_53.gjf 

0 1
C                   0.00000000    0.00000000    0.00000000 
N                   1.45630000    0.00000000    0.00000000 
C                   2.26482000    0.00000000    1.20547000 
H                  -0.40428000    0.90822000    0.48698000 
H                  -0.35264000   -0.87114000    0.56486000 
H                  -0.38110000   -0.05247000   -1.03225000 
H                   1.80393000    0.78765000   -0.54845000 
H                   2.20504000    0.96742000    1.74231000 
H                   1.84820000   -0.75662000    1.88418000 
H                   3.31647000   -0.24635000    1.01664000 


