%nprocshared=4 
%mem=4GB 
# 6-31g(d)  wb97x

tmpdir/M3_conf_0_7.gjf 

0 1
H                   0.00000000    0.00000000    0.00000000 
C                   1.09650000    0.00000000    0.00000000 
C                   1.68304000    0.00000000    1.40423000 
H                   1.43730000   -0.92578000   -0.50224000 
H                   1.46464000    0.93381000   -0.55028000 
H                   1.38109000   -0.91588000    1.92627000 
H                   1.26959000    0.86164000    1.96585000 
H                   2.82416000    0.03922000    1.36144000 


