%nprocshared=4 
%mem=4GB 
# 6-31g(d)  wb97x

tmpdir/M3_conf_2_72.gjf 

0 1
C                   0.00000000    0.00000000    0.00000000 
N                   1.36970000    0.00000000    0.00000000 
H                   1.81249000    0.00000000    0.90665000 
H                  -0.45796000    0.19788000    0.96654000 
O                  -0.68317000   -0.21801000   -0.98909000 
H                   1.98102000   -0.17526000   -0.75912000 


