%nprocshared=4 
%mem=4GB 
# 6-31g(d)  wb97x

tmpdir/M3_conf_2_87.gjf 

0 1
N                   0.00000000    0.00000000    0.00000000 
C                   1.37850000    0.00000000    0.00000000 
N                   2.05843000    0.00000000    1.14376000 
N                   1.90310000   -0.00737000   -1.24128000 
C                   3.39590000    0.00250000    1.05985000 
C                   3.22689000    0.00273000   -1.29939000 
C                   4.04285000    0.01372000   -0.17389000 
H                   3.66033000    0.00766000   -2.29883000 
H                   5.12199000    0.05218000   -0.26314000 
H                  -0.66851000    0.00439000    0.71889000 
H                  -0.35807000   -0.01202000   -0.94304000 
H                   3.93032000    0.00364000    1.99225000 


