%nprocshared=4 
%mem=4GB 
# 6-31g(d)  wb97x

tmpdir/M3_conf_2_74.gjf 

0 1
H                   0.00000000    0.00000000    0.00000000 
N                   1.00900000    0.00000000    0.00000000 
C                   1.57435000    0.00000000    1.29650000 
C                   2.92600000    0.26242000    1.51806000 
C                   0.71507000   -0.23108000    2.36814000 
H                   3.59071000    0.45156000    0.69138000 
C                   3.41951000    0.27995000    2.82497000 
H                  -0.33902000   -0.43825000    2.19579000 
C                   1.22086000   -0.20435000    3.66043000 
C                   2.56267000    0.04366000    3.92104000 
H                   0.54979000   -0.38617000    4.49730000 
H                   1.42824000   -0.16814000   -0.84607000 
H                   4.47737000    0.47551000    3.06438000 
H                   2.93401000    0.05475000    4.94748000 


