%nprocshared=4 
%mem=4GB 
# 6-31g(d)  wb97x

tmpdir/M3_conf_2_70.gjf 

0 1
N                   0.00000000    0.00000000    0.00000000 
H                   1.00610000    0.00000000    0.00000000 
H                  -0.41924000    0.00000000   -0.86262000 
H                  -0.41554000    0.17521000    0.88166000 


