%nprocshared=4 
%mem=4GB 
# 6-31g(d)  wb97x

tmpdir/M3_conf_0_89.gjf 

0 1
H                   0.00000000    0.00000000    0.00000000 
N                   1.00880000    0.00000000    0.00000000 
C                   1.53113000    0.00000000    1.27041000 
N                   2.84744000    0.01457000    1.46437000 
N                   0.58259000   -0.00845000    2.22761000 
C                   3.27846000    0.01101000    2.73326000 
C                   1.03236000   -0.01929000    3.47400000 
C                   2.38363000   -0.01593000    3.80067000 
H                   0.27295000   -0.03695000    4.25488000 
H                   2.71191000   -0.05553000    4.83248000 
H                   1.44346000    0.00476000   -0.88022000 
H                   4.34398000    0.02174000    2.87299000 


