%nprocshared=4 
%mem=4GB 
# 6-31g(d)  wb97x

tmpdir/M3_conf_1_57.gjf 

0 1
C                   0.00000000    0.00000000    0.00000000 
C                   1.52790000    0.00000000    0.00000000 
C                   2.23501000    0.00000000    1.20332000 
C                   2.24016000    0.05295000   -1.19841000 
H                   1.67802000   -0.03910000    2.13583000 
C                   3.62361000    0.04404000    1.20712000 
H                   1.70089000    0.04826000   -2.14381000 
C                   3.62766000    0.11296000   -1.19823000 
H                   4.14824000    0.07997000    2.15994000 
C                   4.33263000    0.09451000    0.00458000 
H                   4.18757000    0.16686000   -2.12755000 
H                  -0.44633000   -0.63160000    0.83876000 
H                  -0.36730000   -0.31782000   -0.99586000 
H                  -0.34638000    1.03272000    0.14220000 
H                   5.41777000    0.14324000   -0.05199000 


