%nprocshared=4 
%mem=4GB 
# 6-31g(d)  wb97x

tmpdir/M3_conf_2_0.gjf 

0 1
C                   0.00000000    0.00000000    0.00000000 
H                   1.10760000    0.00000000    0.00000000 
H                  -0.33756000    0.00000000   -1.04325000 
H                  -0.35792000   -0.91288000    0.50207000 
H                  -0.41805000    0.92903000    0.52199000 


