%nprocshared=4 
%mem=4GB 
# 6-31g(d)  wb97x

tmpdir/M3_conf_1_61.gjf 

0 1
H                   0.00000000    0.00000000    0.00000000 
C                   1.10800000    0.00000000    0.00000000 
H                   1.41318000    0.00000000    1.05526000 
H                   1.53280000   -0.94203000   -0.48351000 
H                   1.47149000    0.92305000   -0.46708000 


