%nprocshared=4 
%mem=4GB 
# 6-31g(d)  wb97x

tmpdir/M3_conf_2_41.gjf 

0 1
H                   0.00000000    0.00000000    0.00000000 
C                   1.10870000    0.00000000    0.00000000 
C                   1.56765000    0.00000000    1.45031000 
H                   1.52527000    0.90080000   -0.56639000 
H                   1.44262000   -0.91646000   -0.50091000 
H                   1.11914000   -0.84878000    1.97807000 
H                   2.66764000   -0.12207000    1.48223000 
H                   1.24834000    0.97065000    1.96893000 


