%nprocshared=4 
%mem=4GB 
# 6-31g(d)  wb97x

tmpdir/M3_conf_2_76.gjf 

0 1
C                   0.00000000    0.00000000    0.00000000 
H                   1.09430000    0.00000000    0.00000000 
H                  -0.38211000    0.00000000   -1.02254000 
H                  -0.32469000   -0.88581000    0.56172000 
H                  -0.32313000    0.88668000    0.56183000 


