%nprocshared=4 
%mem=4GB 
# 6-31g(d)  wb97x

tmpdir/M3_conf_0_12.gjf 

0 1
C                   0.00000000    0.00000000    0.00000000 
N                   1.45830000    0.00000000    0.00000000 
H                  -0.38597000    0.00000000   -1.03177000 
H                  -0.35267000   -0.89760000    0.52199000 
H                  -0.40429000    0.88295000    0.53453000 
H                   1.82904000   -0.03441000    0.94295000 
H                   1.80694000    0.81013000   -0.50819000 


