%nprocshared=4 
%mem=4GB 
# 6-31g(d)  wb97x

tmpdir/M3_conf_1_64.gjf 

0 1
C                   0.00000000    0.00000000    0.00000000 
C                   1.51610000    0.00000000    0.00000000 
C                  -0.77207000    0.00000000   -1.16427000 
C                  -0.63993000   -0.03070000    1.23840000 
C                  -2.15917000   -0.01715000   -1.08799000 
H                  -0.29670000   -0.02781000   -2.14286000 
C                  -2.02684000   -0.03187000    1.31083000 
H                  -0.03062000   -0.04516000    2.13761000 
C                  -2.80211000   -0.02905000    0.15098000 
H                  -2.76507000   -0.01740000   -1.99034000 
H                  -2.51588000   -0.03617000    2.28317000 
O                   2.14697000   -0.46273000    0.93832000 
H                   1.96939000    0.44470000   -0.86939000 
H                  -3.89603000   -0.07735000    0.20871000 


