%nprocshared=4 
%mem=4GB 
# 6-31g(d)  wb97x

tmpdir/M3_conf_0_74.gjf 

0 1
H                   0.00000000    0.00000000    0.00000000 
N                   1.00900000    0.00000000    0.00000000 
C                   1.58474000    0.00000000    1.29192000 
C                   2.93812000    0.26242000    1.50262000 
C                   0.73410000   -0.23108000    2.37042000 
H                   3.59617000    0.45156000    0.67063000 
C                   3.44211000    0.27995000    2.80553000 
H                  -0.32135000   -0.43825000    2.20654000 
C                   1.25024000   -0.20435000    3.65861000 
C                   2.59410000    0.04366000    3.90844000 
H                   0.58591000   -0.38617000    4.50084000 
H                   1.42824000   -0.16814000   -0.84607000 
H                   4.50186000    0.47551000    3.03643000 
H                   2.97367000    0.05475000    4.93186000 


