%nprocshared=4 
%mem=4GB 
# 6-31g(d)  wb97x

tmpdir/M3_conf_1_74.gjf 

0 1
H                   0.00000000    0.00000000    0.00000000 
N                   1.00900000    0.00000000    0.00000000 
C                   1.57095000    0.00000000    1.29797000 
C                   2.92202000    0.26242000    1.52307000 
C                   0.70888000   -0.23108000    2.36736000 
H                   3.58889000    0.45156000    0.69813000 
C                   3.41211000    0.27995000    2.83127000 
H                  -0.34477000   -0.43825000    2.19225000 
C                   1.21128000   -0.20435000    3.66097000 
C                   2.55240000    0.04366000    3.92509000 
H                   0.53802000   -0.38617000    4.49608000 
H                   1.42824000   -0.16814000   -0.84607000 
H                   4.46933000    0.47551000    3.07345000 
H                   2.92105000    0.05475000    4.95250000 


