%nprocshared=4 
%mem=4GB 
# 6-31g(d)  wb97x

tmpdir/M3_conf_0_62.gjf 

0 1
H                   0.00000000    0.00000000    0.00000000 
C                   1.10800000    0.00000000    0.00000000 
C                   1.58586000    0.00000000    1.43735000 
C                   2.89676000    0.36585000    1.74669000 
C                   0.74247000   -0.41480000    2.46833000 
H                   3.55276000    0.68661000    0.94163000 
C                   3.35098000    0.32505000    3.05901000 
H                  -0.28367000   -0.69776000    2.24119000 
C                   1.19768000   -0.47191000    3.77917000 
H                   4.38822000    0.58051000    3.26703000 
C                   2.50212000   -0.08865000    4.08840000 
H                   0.54976000   -0.80581000    4.58462000 
H                   1.53280000    0.85675000   -0.62224000 
H                   1.41723000   -0.94052000   -0.47592000 
H                   2.80738000   -0.15227000    5.13045000 


