%nprocshared=4 
%mem=4GB 
# 6-31g(d)  wb97x

tmpdir/M3_conf_2_32.gjf 

0 1
H                   0.00000000    0.00000000    0.00000000 
C                   1.09540000    0.00000000    0.00000000 
H                   1.41017000    0.00000000    1.04920000 
H                   1.47995000    0.93035000   -0.53067000 
H                   1.44015000   -0.93866000   -0.47559000 


