%nprocshared=4 
%mem=4GB 
# 6-31g(d)  wb97x

tmpdir/M3_conf_2_67.gjf 

0 1
C                   0.00000000    0.00000000    0.00000000 
C                   1.50260000    0.00000000    0.00000000 
O                   2.13894000    0.00000000    1.04289000 
C                  -0.77207000   -0.51494000   -1.04420000 
C                  -0.63993000    0.52039000    1.12417000 
C                  -2.15917000   -0.49659000   -0.96820000 
H                  -0.29670000   -0.97270000   -1.90957000 
C                  -2.02684000    0.55139000    1.18965000 
H                  -0.03062000    0.90528000    1.93698000 
C                  -2.80211000    0.04075000    0.14826000 
H                  -2.76507000   -0.89591000   -1.77739000 
H                  -2.51588000    0.97774000    2.06354000 
H                   1.95589000    0.01415000   -0.97642000 
H                  -3.89603000    0.02298000    0.22139000 


