%nprocshared=4 
%mem=4GB 
# 6-31g(d)  wb97x

tmpdir/M3_conf_2_18.gjf 

0 1
H                   0.00000000    0.00000000    0.00000000 
C                   1.10850000    0.00000000    0.00000000 
N                   1.59468000    0.00000000    1.36988000 
H                   1.46515000    0.88264000   -0.55432000 
H                   1.44318000   -0.91140000   -0.50978000 
H                   1.28621000   -0.82448000    1.87275000 
H                   1.30620000    0.85428000    1.84222000 


