%nprocshared=4 
%mem=4GB 
# 6-31g(d)  wb97x

tmpdir/M3_conf_1_86.gjf 

0 1
N                   0.00000000    0.00000000    0.00000000 
H                   1.01020000    0.00000000    0.00000000 
H                  -0.43466000    0.00000000   -0.88023000 
H                  -0.34138000   -0.00486000    0.89916000 


