%nprocshared=4 
%mem=4GB 
# 6-31g(d)  wb97x

tmpdir/M3_conf_2_73.gjf 

0 1
C                   0.00000000    0.00000000    0.00000000 
N                   1.36970000    0.00000000    0.00000000 
C                   2.22563000    0.00000000    1.12601000 
C                   1.82923000   -0.51226000    2.36107000 
C                   3.51493000    0.49633000    0.94843000 
H                   0.83571000   -0.90611000    2.49818000 
C                   2.73101000   -0.51374000    3.42816000 
H                   3.82400000    0.89830000   -0.01419000 
C                   4.39993000    0.48206000    2.01760000 
C                   4.03937000   -0.01066000    3.26544000 
H                   5.40655000    0.87099000    1.87907000 
H                  -0.45796000    0.02462000   -0.98628000 
O                  -0.68317000   -0.01008000    1.01279000 
H                   1.81075000    0.20414000   -0.88424000 
H                   2.47612000   -0.89920000    4.42870000 
H                   4.75478000   -0.00590000    4.08991000 


