%nprocshared=4 
%mem=4GB 
# 6-31g(d)  wb97x

tmpdir/M3_conf_0_69.gjf 

0 1
O                   0.00000000    0.00000000    0.00000000 
C                   1.22170000    0.00000000    0.00000000 
N                   1.94550000    0.00000000    1.16284000 
H                   1.78337000    0.01479000   -0.93134000 
H                   2.93095000    0.19534000    1.06896000 
H                   1.60716000    0.00775000    2.09351000 


