%nprocshared=4 
%mem=4GB 
# 6-31g(d)  wb97x

tmpdir/M3_conf_0_5.gjf 

0 1
H                   0.00000000    0.00000000    0.00000000 
C                   1.10700000    0.00000000    0.00000000 
C                   1.58231000    0.00000000    1.44567000 
H                   1.44456000    0.91412000   -0.50275000 
H                   1.52505000   -0.90509000   -0.56249000 
H                   1.13979000    0.85191000    1.97573000 
H                   2.68343000    0.12673000    1.46142000 
H                   1.26616000   -0.96415000    1.97103000 


