%nprocshared=4 
%mem=4GB 
# 6-31g(d)  wb97x

tmpdir/M3_conf_0_51.gjf 

0 1
N                   0.00000000    0.00000000    0.00000000 
C                   1.45830000    0.00000000    0.00000000 
H                  -0.37868000    0.00000000   -0.94678000 
H                  -0.38025000   -0.78759000    0.52645000 
H                   1.87085000   -0.96742000   -0.34867000 
H                   1.78991000    0.75662000   -0.72406000 
H                   1.88727000    0.24635000    0.97858000 


