%nprocshared=4 
%mem=4GB 
# 6-31g(d)  wb97x

tmpdir/M3_conf_2_62.gjf 

0 1
H                   0.00000000    0.00000000    0.00000000 
C                   1.10800000    0.00000000    0.00000000 
C                   1.60464000    0.00000000    1.43097000 
C                   2.91947000    0.36585000    1.72313000 
C                   0.77481000   -0.41480000    2.47291000 
H                   3.56488000    0.68661000    0.90955000 
C                   3.39083000    0.32505000    3.02938000 
H                  -0.25421000   -0.69776000    2.25922000 
C                   1.24714000   -0.47191000    3.77767000 
H                   4.43070000    0.58051000    3.22381000 
C                   2.55551000   -0.08865000    4.06980000 
H                   0.60982000   -0.80581000    4.59154000 
H                   1.53280000    0.85675000   -0.62224000 
H                   1.41723000   -0.94052000   -0.47592000 
H                   2.87439000   -0.15227000    5.10776000 


