%nprocshared=4 
%mem=4GB 
# 6-31g(d)  wb97x

tmpdir/M3_conf_2_81.gjf 

0 1
C                   0.00000000    0.00000000    0.00000000 
C                   1.50800000    0.00000000    0.00000000 
H                   1.93096000    0.00000000    1.01359000 
C                  -0.70403000    1.04612000   -0.58298000 
C                  -0.73688000   -1.05264000    0.58421000 
C                  -2.09150000    1.08163000   -0.59689000 
H                  -0.14709000    1.86230000   -1.03839000 
C                  -2.13383000   -1.03546000    0.57395000 
C                  -2.80452000    0.03755000   -0.01235000 
H                  -2.61412000    1.92018000   -1.05235000 
H                  -2.68329000   -1.84927000    1.01760000 
H                   1.89074000    0.89241000   -0.50264000 
H                   1.92038000   -0.87108000   -0.52609000 
H                  -0.15008000   -1.86867000    1.03631000 
H                  -3.91388000    0.08413000   -0.06735000 


