%nprocshared=4 
%mem=4GB 
# 6-31g(d)  wb97x

tmpdir/M3_conf_0_68.gjf 

0 1
C                   0.00000000    0.00000000    0.00000000 
C                   1.50260000    0.00000000    0.00000000 
N                   2.20210000    0.00000000    1.17762000 
C                  -0.77207000    0.53019000    1.03654000 
C                  -0.63993000   -0.53662000   -1.11651000 
C                  -2.15917000    0.51073000    0.96082000 
H                  -0.29670000    1.00059000    1.89511000 
C                  -2.02684000   -0.56857000   -1.18153000 
H                  -0.03062000   -0.93324000   -1.92366000 
C                  -2.80211000   -0.04289000   -0.14765000 
H                  -2.76507000    0.92187000    1.76406000 
H                  -2.51588000   -1.00753000   -2.04916000 
O                   2.13347000   -0.01516000   -1.04610000 
H                   1.66296000   -0.18201000    2.01085000 
H                   3.18392000   -0.01944000    1.30546000 
H                  -3.89603000   -0.02619000   -0.22104000 


