%nprocshared=4 
%mem=4GB 
# 6-31g(d)  wb97x

tmpdir/M3_conf_1_77.gjf 

0 1
C                   0.00000000    0.00000000    0.00000000 
H                   1.09550000    0.00000000    0.00000000 
H                  -0.40998000    0.00000000   -1.01169000 
H                  -0.32333000    0.89153000    0.54420000 
H                  -0.33246000   -0.87117000    0.58034000 


