%nprocshared=4 
%mem=4GB 
# 6-31g(d)  wb97x

tmpdir/M3_conf_1_84.gjf 

0 1
H                   0.00000000    0.00000000    0.00000000 
C                   1.09800000    0.00000000    0.00000000 
H                   1.41838000    0.00000000    1.05053000 
H                   1.50798000    0.84197000   -0.56089000 
H                   1.42133000   -0.94718000   -0.44027000 


