%nprocshared=4 
%mem=4GB 
# 6-31g(d)  wb97x

tmpdir/M3_conf_0_75.gjf 

0 1
C                   0.00000000    0.00000000    0.00000000 
C                   1.51320000    0.00000000    0.00000000 
C                  -0.70403000    0.00000000   -1.19759000 
C                  -0.73688000   -0.00189000    1.20389000 
C                  -2.09150000    0.00514000   -1.23538000 
H                  -0.14709000   -0.00050000   -2.13224000 
C                  -2.13383000   -0.00249000    1.18389000 
C                  -2.80452000    0.00749000   -0.03882000 
H                  -2.61412000    0.01549000   -2.18959000 
H                  -2.68329000   -0.01095000    2.11073000 
H                   1.89594000   -0.00483000   -1.02421000 
H                   1.92558000   -0.88349000    0.50496000 
H                   1.92623000    0.88896000    0.49540000 
H                  -0.15008000   -0.00405000    2.13678000 
H                  -3.91388000   -0.01787000   -0.10628000 


