%nprocshared=4 
%mem=4GB 
# 6-31g(d)  wb97x

tmpdir/M3_conf_1_89.gjf 

0 1
H                   0.00000000    0.00000000    0.00000000 
N                   1.00880000    0.00000000    0.00000000 
C                   1.54617000    0.00000000    1.26412000 
N                   2.86469000    0.01457000    1.44244000 
N                   0.60906000   -0.00845000    2.23251000 
C                   3.31073000    0.01101000    2.70613000 
C                   1.07359000   -0.01929000    3.47348000 
C                   2.42864000   -0.01593000    3.78409000 
H                   0.32350000   -0.03695000    4.26331000 
H                   2.76914000   -0.05553000    4.81193000 
H                   1.44346000    0.00476000   -0.88022000 
H                   4.37784000    0.02174000    2.83321000 


