%nprocshared=4 
%mem=4GB 
# 6-31g(d)  wb97x

tmpdir/M3_frag_conf_0_1.gjf 

0 1
C                  -0.86300000    0.18100000   12.79100000 
C                   0.35000000   -0.04500000   13.47000000 
H                   1.21608100    0.55816100   13.26334200 
C                  -1.95700000   -0.63600000   13.05400000 
H                  -2.89013500   -0.46588400   12.51732700 
C                  -1.89100000   -1.67200000   13.98500000 
H                  -2.75466900   -2.30072800   14.17904200 
C                  -0.68900000   -1.89500000   14.65700000 
C                   0.42500000   -1.09000000   14.41500000 
H                  -1.05950275    0.94421668   12.05843775 
H                  -0.65352959   -2.71443895   15.38305766 
H                   1.31004839   -1.33209139   14.98721601 


