%nprocshared=4 
%mem=4GB 
# 6-31g(d)  wb97x

tmpdir/M3_frag_conf_2_2.gjf 

0 1
C                   2.84622284   -0.83837512   15.11187642 
N                   3.14068506    0.09388914   14.19973888 
N                   3.68835410   -1.29908898   16.04906375 
C                   4.93028888   -0.80439494   16.04573143 
H                   5.57036096   -1.15303821   16.84732064 
C                   5.36016203    0.14244585   15.13190442 
H                   6.37723774    0.51045372   15.13854177 
C                   4.38478334    0.60588123   14.23921734 
H                   1.84839797   -1.25743060   15.16373226 
H                   4.57576788    1.42654231   13.58060914 


