%nprocshared=4 
%mem=4GB 
# 6-31g(d)  wb97x

tmpdir/M3_frag_conf_0_2.gjf 

0 1
C                   2.78600000   -0.81000000   15.08400000 
N                   3.09700000    0.22600000   14.26900000 
N                   3.71500000   -1.27700000   15.95200000 
C                   5.00000000   -0.79300000   15.99100000 
H                   5.67028600   -1.26099200   16.70557900 
C                   5.35400000    0.26600000   15.15800000 
H                   6.36058900    0.65906000   15.18637600 
C                   4.35600000    0.77700000   14.29500000 
H                   1.81527642   -1.27217447   15.13037465 
H                   4.54493425    1.56748351   13.68114467 


