%nprocshared=4 
%mem=4GB 
# 6-31g(d)  wb97x

tmpdir/M3_frag_conf_2_0.gjf 

0 1
C                  -1.76493986    5.32846167    8.91540315 
C                  -2.44449901    4.91667699   10.06295418 
H                  -3.34297131    5.44648725   10.34653403 
C                  -1.97645045    3.86426615   10.83588903 
H                  -2.48518496    3.62085661   11.76387231 
C                  -0.61450873    4.63495280    8.53861431 
H                  -0.07300375    4.92216660    7.63957683 
C                  -0.15728212    3.56307164    9.29951588 
H                   0.73032719    3.02197934    9.00128258 
C                  -0.82989815    3.16291353   10.45556853 
H                  -2.12880614    6.21498278    8.36240878 
H                  -0.41955352    2.33727836   11.04297594 


