%nprocshared=4 
%mem=4GB 
# 6-31g(d)  wb97x

tmpdir/M3_ref_69.gjf 

0 1
O                   0.91103200    1.73044000   11.41042700 
C                  -0.26800100    2.01851300   11.55020300 
N                  -1.13954400    1.31644000   12.33992700 
H                  -0.70498419    2.86623345   11.02712804 
H                  -2.11733900    1.53477400   12.22002400 
H                  -0.95784075    0.50770770   12.88182987 


