%nprocshared=4 
%mem=4GB 
# 6-31g(d)  wb97x

tmpdir/M3_ref_55.gjf 

0 1
C                  -2.38771300    6.59015600    8.63575000 
H                  -2.01589000    6.56010600    7.59246400 
H                  -3.52290860    6.69542645    8.67932881 
H                  -1.95354000    7.48965300    9.09299200 
H                  -2.01715214    5.71279603    9.17905395 


