%nprocshared=4 
%mem=4GB 
# 6-31g(d)  wb97x

tmpdir/M3_ref_89.gjf 

0 1
H                   1.85535000   -2.50957700   15.43048300 
N                   1.82945300   -1.65095800   14.90158400 
C                   3.07471600   -1.07368000   14.84765900 
N                   3.26303200    0.07820800   14.20875900 
N                   4.01332800   -1.78954000   15.49762000 
C                   4.50744700    0.57550600   14.19911300 
C                   5.23707900   -1.28224100   15.46829400 
C                   5.55768600   -0.09244400   14.82460900 
H                   6.00504800   -1.85936600   15.98209700 
H                   6.57685600    0.27434900   14.79763300 
H                   0.95519561   -1.38972519   14.53928100 
H                   4.64319807    1.50559817   13.67801642 


