%nprocshared=4 
%mem=4GB 
# 6-31g(d)  wb97x

tmpdir/M3_ref_70.gjf 

0 1
N                  -1.13954400    1.31644000   12.33992700 
H                  -2.11733900    1.53477400   12.22002400 
H                  -0.52929918    1.80802379   11.78697094 
H                  -0.95784075    0.50770770   12.88182987 


