%nprocshared=4 
%mem=4GB 
# 6-31g(d)  wb97x

tmpdir/M3_ref_9.gjf 

0 1
C                  -5.77970900    8.17021300    8.39902500 
C                  -4.26961900    8.04416000    8.25904800 
N                  -3.83196200    6.72408600    8.69119300 
H                  -6.09910600    9.15516500    8.03798700 
H                  -6.04780400    8.10009400    9.47228900 
H                  -6.30736997    7.36463819    7.78416554 
H                  -3.98842300    8.23873700    7.20620200 
H                  -3.77996500    8.80014000    8.88436200 
H                  -4.30193446    6.00450387    8.14047965 
H                  -2.82071474    6.63030969    8.65237242 


