%nprocshared=4 
%mem=4GB 
# 6-31g(d)  wb97x

tmpdir/M3_ref_20.gjf 

0 1
N                  -6.45102400    7.14532300    7.61677200 
C                  -6.01243900    5.82643500    8.04295000 
H                  -5.98097662    7.86293970    8.16449695 
H                  -7.45908400    7.23725852    7.67266319 
H                  -6.50293000    5.07231600    7.41594100 
H                  -6.29645100    5.62670800    9.09586400 
H                  -4.91990030    5.73229652    7.94285249 


