%nprocshared=4 
%mem=4GB 
# 6-31g(d)  wb97x

tmpdir/M3_ref_54.gjf 

0 1
C                  -4.50317000    5.69638900    7.90467200 
N                  -3.83196200    6.72408600    8.69119300 
C                  -2.38771300    6.59015600    8.63575000 
H                  -5.59570870    5.79052748    8.00476951 
H                  -4.18463700    4.71112200    8.26219800 
H                  -4.22932800    5.77522300    6.83472100 
H                  -4.13840462    7.64838729    8.38860982 
H                  -2.01589000    6.56010600    7.59246400 
H                  -1.95354000    7.48965300    9.09299200 
H                  -2.01715214    5.71279603    9.17905395 


