%nprocshared=4 
%mem=4GB 
# 6-31g(d)  wb97x

tmpdir/M3_ref_86.gjf 

0 1
N                   1.82945300   -1.65095800   14.90158400 
H                   1.85535000   -2.50957700   15.43048300 
H                   0.95519561   -1.38972519   14.53928100 
H                   2.70137245   -1.24675429   14.86382631 


