%nprocshared=4 
%mem=4GB 
# 6-31g(d)  wb97x

tmpdir/M3_ref_30.gjf 

0 1
H                  -8.27584800    7.15840900    8.72803300 
C                  -7.89072100    7.27662400    7.69659500 
H                  -8.36712600    6.51853500    7.06561000 
H                  -6.75910332    7.17341997    7.63385324 
H                  -8.19355100    8.26357400    7.33047400 


