%nprocshared=4 
%mem=4GB 
# 6-31g(d)  wb97x

tmpdir/M3_ref_59.gjf 

0 1
N                  -3.83196200    6.72408600    8.69119300 
C                  -2.38771300    6.59015600    8.63575000 
H                  -1.95354000    7.48965300    9.09299200 
H                  -4.13840462    7.64838729    8.38860982 
H                  -4.30193446    6.00450387    8.14047965 
H                  -2.01589000    6.56010600    7.59246400 
H                  -2.01715214    5.71279603    9.17905395 


