%nprocshared=4 
%mem=4GB 
# 6-31g(d)  wb97x

tmpdir/M3_ref_73.gjf 

0 1
C                  -0.26800100    2.01851300   11.55020300 
N                  -1.13954400    1.31644000   12.33992700 
C                  -0.88003800    0.16142000   13.11386500 
C                   0.39309500   -0.13856500   13.59764500 
C                  -1.96331300   -0.65879100   13.42037000 
H                   1.23073400    0.50003200   13.37036600 
C                   0.58085100   -1.27786900   14.38414800 
H                  -2.95635600   -0.42654400   13.04124300 
C                  -1.76034500   -1.78362300   14.20776100 
C                  -0.50593200   -2.12138800   14.70000800 
H                  -2.60630700   -2.42488700   14.44604800 
H                  -0.70498419    2.86623345   11.02712804 
O                   0.91103200    1.73044000   11.41042700 
H                  -2.11733900    1.53477400   12.22002400 
H                   1.56226591   -1.57112106   14.79085839 
H                  -0.37454669   -3.01451999   15.31377863 


