%nprocshared=4 
%mem=4GB 
# b3lyp/6-31g(d) 

tmpdir/M3_conf_0_30.gjf 

0 1
C                   0.00000000    0.00000000    0.00000000 
C                   1.54220000    0.00000000    0.00000000 
H                   1.91511000    0.00000000    1.03071000 
H                  -0.41394000    0.83281000    0.50735000 
H                  -0.36623000   -0.01248000   -1.03643000 
H                  -0.36904000   -0.92667000    0.46283000 
H                   1.95813000   -0.87173000   -0.53881000 
H                   1.90400000    0.91824000   -0.47475000 


