%nprocshared=4 
%mem=4GB 
# b3lyp/6-31g(d) 

tmpdir/M3_conf_0_1.gjf 

0 1
C                   0.00000000    0.00000000    0.00000000 
H                   1.09690000    0.00000000    0.00000000 
H                  -0.34997000    0.00000000   -0.99992000 
H                  -0.30309000   -0.93646000    0.49020000 
H                  -0.37193000    0.87019000    0.59227000 


