%nprocshared=4 
%mem=4GB 
# b3lyp/6-31g(d) 

tmpdir/M3_conf_0_0.gjf 

0 1
C                   0.00000000    0.00000000    0.00000000 
C                   1.48820000    0.00000000    0.00000000 
C                  -1.20750000    0.00000000   -0.01539000 
H                  -2.27354000   -0.00078000   -0.02687000 
H                   1.85135000   -0.88610000    0.53982000 
H                   1.85073000    0.86985000    0.56662000 
H                   1.92441000    0.01399000   -1.02756000 


