%nprocshared=4 
%mem=4GB 
# b3lyp/6-31g(d) 

tmpdir/M3_conf_0_21.gjf 

0 1
N                   0.00000000    0.00000000    0.00000000 
C                   1.46650000    0.00000000    0.00000000 
H                   1.76764000    0.00000000    1.05715000 
H                  -0.34685000    0.28750000   -1.07372000 
H                  -0.31017000    0.79990000    0.55408000 
H                   1.87157000    0.91489000   -0.46375000 
H                   1.86682000   -0.89468000   -0.51239000 


