%nprocshared=4 
%mem=4GB 
# b3lyp/6-31g(d) 

tmpdir/M3_conf_0_32.gjf 

0 1
C                   0.00000000    0.00000000    0.00000000 
C                   1.52780000    0.00000000    0.00000000 
H                   1.88972000    0.00000000    1.03463000 
H                  -0.41722000   -0.90907000    0.57292000 
H                  -0.38099000    0.88720000    0.52532000 
H                  -0.37863000    0.03506000   -1.03517000 
H                   1.94764000    0.87755000   -0.54772000 
H                   1.88418000   -0.92346000   -0.46870000 


