%nprocshared=4 
%mem=4GB 
# b3lyp/6-31g(d) 

tmpdir/M3_conf_0_22.gjf 

0 1
N                   0.00000000    0.00000000    0.00000000 
C                   1.46650000    0.00000000    0.00000000 
H                   1.90165000    0.00000000    1.01332000 
H                  -0.34685000    0.82772000    0.74189000 
H                  -0.31017000   -0.85587000    0.46296000 
H                   1.76727000   -0.94302000   -0.47801000 
H                   1.86682000    0.86153000   -0.56635000 


