%nprocshared=4 
%mem=4GB 
# b3lyp/6-31g(d) 

tmpdir/M3_conf_0_24.gjf 

0 1
H                   0.00000000    0.00000000    0.00000000 
C                   1.09920000    0.00000000    0.00000000 
H                   1.45332000    0.00000000    1.04440000 
H                   1.41461000    0.96545000   -0.54511000 
H                   1.48255000   -0.89727000   -0.52076000 


