%nprocshared=4 
%mem=4GB 
# b3lyp/6-31g(d) 

tmpdir/M3_conf_0_19.gjf 

0 1
C                   0.00000000    0.00000000    0.00000000 
H                   1.09740000    0.00000000    0.00000000 
H                  -0.42340000    0.00000000   -1.07212000 
H                  -0.33401000    0.94307000    0.45529000 
H                  -0.37973000   -0.86148000    0.58042000 


