%nprocshared=4 
%mem=4GB 
# b3lyp/6-31g(d) 

tmpdir/M3_frag_conf_0_0.gjf 

0 1
C                  -0.28354300    1.14163500    0.08774500 
C                  -1.46629400    1.46333100   -0.19595400 
H                  -2.00034800    2.33715400   -0.53087400 
H                   0.79288417    1.17309726    0.11685752 


