%nprocshared=4 
%mem=4GB 
# b3lyp/6-31g(d) 

tmpdir/M3_ref_9.gjf 

0 1
H                  -1.44664300    1.70669300   -0.16248800 
C                  -1.35441000    0.71470400    0.30300100 
C                  -0.09370800    0.00656300   -0.23321700 
H                  -2.24302929    0.16418725    0.13109255 
H                  -1.24209000    0.89543900    1.38154600 
H                   0.82527469    0.59085700   -0.04026519 
H                  -0.19480800   -0.16538000   -1.31100700 
H                   0.00093000   -0.97452200    0.24420500 


