%nprocshared=4 
%mem=4GB 
# b3lyp/6-31g(d) 

tmpdir/M3_ref_15.gjf 

0 1
H                   3.16244400    0.74581100   -0.35676600 
N                   2.36130100    0.12633400   -0.48884500 
C                   1.17580500    0.81372600    0.03333300 
H                   2.60015847   -0.75263917    0.23654067 
H                   1.13150300    1.77818300   -0.49221400 
H                   1.27141300    1.02375800    1.11167600 
H                   0.25682231    0.22943200   -0.15961881 


